10
Coordinates from ORCA-job orca E -51.876510687616
  C      -0.531745     -1.718166     -0.143147
  C       0.725034     -1.010935     -0.071903
  C      -0.025776      1.252962     -0.143553
  O       0.944206      0.269028     -0.088203
  O      -1.192314      1.071918     -0.042337
  H      -0.455331     -2.522599     -0.884239
  H      -0.707110     -2.255137      0.799733
  H      -1.392003     -1.078646     -0.342565
  H       1.655876     -1.574759     -0.003335
  H       0.482745      2.214503     -0.287064
10
Coordinates from ORCA-job orca E -51.880847917100
  C      -0.538479     -1.725514     -0.159207
  C       0.709175     -1.015851     -0.075163
  C      -0.034764      1.275924     -0.156696
  O       0.930658      0.241250     -0.102864
  O      -1.178686      1.121550      0.043688
  H      -0.414898     -2.548377     -0.870453
  H      -0.704424     -2.233748      0.800719
  H      -1.399493     -1.115503     -0.392593
  H       1.642025     -1.571166      0.013048
  H       0.492469      2.219604     -0.307090
10
Coordinates from ORCA-job orca E -51.880000375381
  C      -0.548888     -1.707923     -0.177550
  C       0.704594     -1.020948     -0.068564
  C      -0.039969      1.303668     -0.063059
  O       0.936921      0.197623     -0.067184
  O      -1.167480      1.111982      0.072545
  H      -0.388032     -2.525305     -0.883658
  H      -0.683645     -2.210183      0.790076
  H      -1.409401     -1.110259     -0.411008
  H       1.631758     -1.585530      0.021162
  H       0.467725      2.195047     -0.419373
10
Coordinates from ORCA-job orca E -51.883664438056
  C      -0.547395     -1.713260     -0.187611
  C       0.712706     -1.023551     -0.074821
  C      -0.056905      1.296008     -0.131268
  O       0.942683      0.203075     -0.097850
  O      -1.162322      1.120186      0.160566
  H      -0.381322     -2.552557     -0.867179
  H      -0.700908     -2.186640      0.792239
  H      -1.406598     -1.114215     -0.453363
  H       1.634518     -1.594743      0.047807
  H       0.469125      2.213868     -0.395133
10
Coordinates from ORCA-job orca E -51.884096389875
  C      -0.544855     -1.719997     -0.196330
  C       0.713990     -1.022314     -0.067992
  C      -0.059497      1.304400     -0.120107
  O       0.944910      0.214541     -0.090438
  O      -1.154531      1.139675      0.224696
  H      -0.373510     -2.564291     -0.868887
  H      -0.719303     -2.187490      0.782997
  H      -1.398399     -1.122697     -0.480611
  H       1.632385     -1.597714      0.057570
  H       0.462391      2.204058     -0.447510
10
Coordinates from ORCA-job orca E -51.884459945977
  C      -0.540744     -1.712520     -0.212042
  C       0.722398     -1.021119     -0.062390
  C      -0.071657      1.299967     -0.109726
  O       0.955337      0.215674     -0.080258
  O      -1.134859      1.135279      0.319701
  H      -0.366006     -2.565813     -0.871307
  H      -0.741911     -2.162998      0.770152
  H      -1.381788     -1.108742     -0.521548
  H       1.631214     -1.606602      0.081992
  H       0.431599      2.175043     -0.521185
10
Coordinates from ORCA-job orca E -51.884624689953
  C      -0.535255     -1.701849     -0.225824
  C       0.731033     -1.020116     -0.052387
  C      -0.082548      1.291199     -0.096927
  O       0.965082      0.213137     -0.063661
  O      -1.110584      1.130403      0.407454
  H      -0.359309     -2.561041     -0.875753
  H      -0.767289     -2.137121      0.756123
  H      -1.361652     -1.088962     -0.559286
  H       1.633019     -1.614063      0.100590
  H       0.391085      2.136583     -0.596942
10
Coordinates from ORCA-job orca E -51.884656754560
  C      -0.533450     -1.698903     -0.227204
  C       0.733876     -1.020441     -0.052802
  C      -0.083277      1.287214     -0.095036
  O       0.966700      0.211802     -0.057353
  O      -1.106828      1.125643      0.417623
  H      -0.361201     -2.558440     -0.877333
  H      -0.772826     -2.131179      0.754105
  H      -1.356642     -1.082392     -0.562852
  H       1.635519     -1.614254      0.103079
  H       0.381713      2.129121     -0.608839
10
Coordinates from ORCA-job orca E -51.884681877301
  C      -0.531107     -1.697110     -0.229442
  C       0.736078     -1.021160     -0.049367
  C      -0.083391      1.282811     -0.092535
  O       0.966668      0.210264     -0.047494
  O      -1.098491      1.127029      0.438527
  H      -0.360311     -2.557849     -0.878013
  H      -0.784465     -2.123815      0.750437
  H      -1.349212     -1.077499     -0.572855
  H       1.639803     -1.612934      0.102293
  H       0.368010      2.118433     -0.628164
10
Coordinates from ORCA-job orca E -51.884688171291
  C      -0.530841     -1.697848     -0.230106
  C       0.736363     -1.021719     -0.050597
  C      -0.082254      1.281897     -0.091784
  O       0.965855      0.210468     -0.045913
  O      -1.097310      1.128495      0.440977
  H      -0.360522     -2.560402     -0.876309
  H      -0.786882     -2.120957      0.750643
  H      -1.348044     -1.078311     -0.575933
  H       1.641108     -1.611865      0.101068
  H       0.366109      2.118411     -0.628659
