10
 energy: -16.582084140126 gnorm: 0.027024324283 xtb: 6.7.1 (edcfbbe)
C           -0.51847733025279       -1.70365187455015       -0.21057887055782
C            0.72917892992620       -1.00957088612880       -0.07624714633279
C           -0.05737503051669        1.27318433149789       -0.09429619321720
O            0.95189372819678        0.23365479101859       -0.05468972368444
O           -1.15494073619883        1.08241068688192        0.25588982554656
H           -0.39664581509681       -2.59695421699393       -0.83140999755357
H           -0.77374218707284       -2.12243062479493        0.77764032868474
H           -1.36287336141589       -1.08900772896853       -0.52437816151953
H            1.65061836720263       -1.59928556518706        0.00671436163021
H            0.43591404127422        2.17982204062703       -0.45524566945954
