7
Coordinates from ORCA-job orca E -14.037621245992
  C      -0.667359     -3.775907     -0.554062
  C       0.083349     -3.492875      0.609169
  H      -0.086312     -3.727789     -1.481120
  H      -0.963328     -4.844127     -0.484046
  H      -1.613011     -3.228257     -0.613422
  H       1.152966     -3.665136      0.651278
  H      -0.385388     -3.107457      1.506313
7
Coordinates from ORCA-job orca E -14.038376888744
  C      -0.667881     -3.762022     -0.560768
  C       0.079526     -3.488411      0.599387
  H      -0.083384     -3.729924     -1.481682
  H      -0.947393     -4.835830     -0.460595
  H      -1.617201     -3.229660     -0.614322
  H       1.150777     -3.678401      0.644848
  H      -0.393525     -3.117300      1.507242
7
Coordinates from ORCA-job orca E -14.039726544125
  C      -0.669362     -3.717138     -0.582983
  C       0.064982     -3.499234      0.581451
  H      -0.075204     -3.732658     -1.490488
  H      -0.888838     -4.802698     -0.384504
  H      -1.637880     -3.235379     -0.618587
  H       1.136363     -3.716762      0.628618
  H      -0.409143     -3.137679      1.500603
7
Coordinates from ORCA-job orca E -14.040486429929
  C      -0.668869     -3.681838     -0.600158
  C       0.061711     -3.482192      0.565926
  H      -0.078643     -3.744650     -1.508381
  H      -0.837149     -4.766657     -0.308463
  H      -1.654297     -3.235036     -0.635808
  H       1.119191     -3.748307      0.621354
  H      -0.421027     -3.182869      1.499640
7
Coordinates from ORCA-job orca E -14.041628973571
  C      -0.665656     -3.630547     -0.625339
  C       0.051002     -3.488764      0.552553
  H      -0.090486     -3.759287     -1.536322
  H      -0.755728     -4.699532     -0.194509
  H      -1.674518     -3.237344     -0.662198
  H       1.096007     -3.787621      0.608276
  H      -0.439704     -3.238452      1.491649
7
Coordinates from ORCA-job orca E -14.042895330113
  C      -0.655051     -3.550340     -0.660269
  C       0.029141     -3.515946      0.530646
  H      -0.119481     -3.783323     -1.575023
  H      -0.613718     -4.559641     -0.007952
  H      -1.697805     -3.251272     -0.701434
  H       1.055653     -3.854087      0.581649
  H      -0.477821     -3.326940      1.466493
7
Coordinates from ORCA-job orca E -14.043180405454
  C      -0.636564     -3.549703     -0.642716
  C       0.034048     -3.550016      0.558123
  H      -0.146697     -3.755650     -1.595934
  H      -0.656957     -4.638440     -0.044995
  H      -1.686445     -3.250595     -0.715446
  H       1.073536     -3.821687      0.605594
  H      -0.460003     -3.275458      1.469484
7
Coordinates from ORCA-job orca E -14.044338199880
  C      -0.642917     -3.539384     -0.655803
  C       0.028999     -3.542124      0.542507
  H      -0.139183     -3.771883     -1.591708
  H      -0.628530     -4.597983     -0.004785
  H      -1.689547     -3.245577     -0.714357
  H       1.069048     -3.834545      0.589894
  H      -0.476952     -3.310053      1.468362
7
Coordinates from ORCA-job orca E -14.044540810203
  C      -0.643144     -3.529562     -0.661121
  C       0.024230     -3.547821      0.536444
  H      -0.138557     -3.772289     -1.592221
  H      -0.611122     -4.587187      0.019574
  H      -1.690556     -3.244859     -0.714416
  H       1.065630     -3.842740      0.582468
  H      -0.485564     -3.317091      1.463382
7
Coordinates from ORCA-job orca E -14.044641512319
  C      -0.649288     -3.533859     -0.664848
  C       0.022604     -3.543643      0.527994
  H      -0.124176     -3.772117     -1.580995
  H      -0.618234     -4.606144      0.020209
  H      -1.687224     -3.234002     -0.701653
  H       1.071630     -3.836880      0.571913
  H      -0.494396     -3.314904      1.461490
7
Coordinates from ORCA-job orca E -14.044825085128
  C      -0.644083     -3.522872     -0.665673
  C       0.018796     -3.558263      0.528872
  H      -0.131156     -3.767121     -1.589296
  H      -0.604913     -4.600722      0.041588
  H      -1.688760     -3.236211     -0.707851
  H       1.067192     -3.841119      0.571619
  H      -0.496159     -3.315240      1.454851
7
Coordinates from ORCA-job orca E -14.044853390491
  C      -0.643361     -3.522313     -0.665639
  C       0.018647     -3.561823      0.530053
  H      -0.131789     -3.763850     -1.591476
  H      -0.605977     -4.605496      0.044262
  H      -1.688966     -3.235767     -0.709125
  H       1.067191     -3.839675      0.572547
  H      -0.494828     -3.312623      1.453489
7
Coordinates from ORCA-job orca E -14.044862084240
  C      -0.643597     -3.520951     -0.667077
  C       0.017788     -3.564679      0.529512
  H      -0.131050     -3.761682     -1.592808
  H      -0.604371     -4.607478      0.050693
  H      -1.689465     -3.234520     -0.709885
  H       1.066766     -3.839553      0.571644
  H      -0.495153     -3.312684      1.452032
7
Coordinates from ORCA-job orca E -14.044863409684
  C      -0.644089     -3.520953     -0.667688
  C       0.017542     -3.564796      0.529272
  H      -0.130299     -3.760923     -1.592960
  H      -0.603985     -4.608112      0.052257
  H      -1.689902     -3.234241     -0.710209
  H       1.066420     -3.839859      0.571362
  H      -0.494771     -3.312663      1.452076
