7
Coordinates from ORCA-job orca E -14.044863409684
  C          -0.64408868507037     -3.52095317549784     -0.66768846503220
  C           0.01754197165790     -3.56479586550800      0.52927169410310
  H          -0.13029897168935     -3.76092293339167     -1.59295961427597
  H          -0.60398475807026     -4.60811207519163      0.05225693285243
  H          -1.68990177888683     -3.23424123788100     -0.71020899389275
  H           1.06642039152037     -3.83985922585217      0.57136232181351
  H          -0.49477062946145     -3.31266337667768      1.45207643443188
