7
 energy: -6.735116220581 gnorm: 0.009860919778 xtb: 6.7.1 (edcfbbe)
C           -0.68230443894488       -3.82273511026634       -0.55727684905636
C            0.10731061973997       -3.45738990023434        0.62851421862520
H           -0.09699892706443       -3.71461063303491       -1.47018188769882
H           -1.00783721361641       -4.87224245798623       -0.51351263008597
H           -1.58529989108013       -3.21741246463319       -0.63245201306717
H            1.16313794135652       -3.64037323704390        0.65712955075147
H           -0.37722713341176       -3.11677174455337        1.52194367617416
