3
Coordinates from ORCA-job orca E -22.229743586528
  C       2.222037      4.166663     -0.219070
  O       1.472353      3.365602      0.135925
  H       2.861007      4.966067     -0.492993
3
Coordinates from ORCA-job orca E -22.232873481955
  C       2.236476      4.155317     -0.232483
  O       1.457040      3.361487      0.146183
  H       2.861880      4.981528     -0.489839
3
Coordinates from ORCA-job orca E -22.243629390393
  C       2.299772      4.091951     -0.294629
  O       1.418392      3.382352      0.179751
  H       2.837233      5.024028     -0.461261
3
Coordinates from ORCA-job orca E -22.250595098117
  C       2.341485      4.045091     -0.336836
  O       1.407026      3.414355      0.195976
  H       2.806886      5.038887     -0.435278
3
Coordinates from ORCA-job orca E -22.263414556147
  C       2.371968      3.994472     -0.371701
  O       1.424949      3.473623      0.197341
  H       2.758480      5.030236     -0.401779
3
Coordinates from ORCA-job orca E -22.269250378779
  C       2.386923      3.939466     -0.396217
  O       1.470465      3.554313      0.183660
  H       2.698008      5.004552     -0.363582
3
Coordinates from ORCA-job orca E -22.270197204484
  C       2.390234      3.945308     -0.397219
  O       1.455564      3.538100      0.190645
  H       2.709599      5.014924     -0.369565
3
Coordinates from ORCA-job orca E -22.270255699893
  C       2.385900      3.948021     -0.393363
  O       1.456978      3.535378      0.188936
  H       2.712519      5.014933     -0.371712
3
Coordinates from ORCA-job orca E -22.270260275983
  C       2.387027      3.945952     -0.394700
  O       1.457588      3.537593      0.189031
  H       2.710782      5.014787     -0.370469
3
Coordinates from ORCA-job orca E -22.270260586254
  C       2.386896      3.946140     -0.394558
  O       1.457400      3.537211      0.189076
  H       2.711100      5.014980     -0.370656
