10
Coordinates from ORCA-job orca E -51.915782868160
  C          -0.73950372927298     -0.91486533781322      0.03897065366055
  C           0.78534247532588     -0.92212041791910      0.03345960432236
  C           0.03268664965257      1.16701414236086      0.03207541074945
  O           1.10750597242553      0.51193629916159      0.03118633575218
  O          -1.04819410157739      0.52182311054621      0.03566027747383
  H          -1.19099450990247     -1.32644009275401      0.93505342771657
  H          -1.19772628529949     -1.33191931495119     -0.85110348912080
  H           1.23309710824622     -1.34124723541096     -0.86097978715413
  H           1.23962831106253     -1.33971254728398      0.92530177374877
  H           0.03735454933960      2.25271573406380      0.02973220285123
