8
Coordinates from ORCA-job orca E -30.114125817481
  C           0.53484528906023     -3.71652106329787     -0.56043185942797
  C           0.52195527971671     -2.36781913692331     -0.10719836147658
  O           0.49738880632403     -1.31407922387062      0.24202362788837
  H           1.21821250970001     -3.77785408385659     -1.41195849597323
  H           0.87961269974165     -4.34600014393815      0.26333766964390
  H          -0.48438177659513     -3.97924788931589     -0.85687760939765
  H           3.34583787888402     -3.05239740688053      0.91676833304338
  H           3.31332467316845     -2.31260082191699      0.86893031569979
