8
Coordinates from ORCA-job orca E -30.394378304093
  C           0.84891624192783     -3.71338373235733     -0.41403745207189
  C           1.59679634384502     -2.57457855172670      0.23691679732687
  O           1.12560069043861     -1.32880249774447     -0.04059309098539
  H           0.87766777080060     -3.62001820999277     -1.49817033496357
  H           1.29357215094637     -4.66928871909259     -0.13881271699103
  H          -0.19324803080234     -3.71510371132628     -0.09969693285983
  H           2.66641874573843     -2.57857734333028     -0.02574616871073
  H           1.61107144710549     -2.66676700442957      1.33473351925557
