8
 energy: -10.792415503584 gnorm: 0.050561247791 xtb: 6.7.1 (edcfbbe)
C            0.84495248273189       -3.71774107933647       -0.41694525509604
C            1.57299722853183       -2.53724612851950        0.22299846363850
O            1.13392512209675       -1.33259369832247       -0.03510263588920
H            0.87104504698366       -3.62517913927409       -1.50052771474842
H            1.30778208190247       -4.65639975516269       -0.12503921226126
H           -0.19845993933879       -3.71991954915820       -0.10923922969569
H            2.66854797407747       -2.59378662230532       -0.01668939267310
H            1.62587290927945       -2.68370637695753        1.33514769500767
