11
Coordinates from ORCA-job orca E -52.421788382779
  C      -1.792351      0.616506     -0.368606
  C      -0.822177     -0.432000      0.609926
  C       1.414468     -0.173364     -0.277305
  O       0.097826     -0.945135     -0.206159
  O       1.520867      0.863735      0.246524
  H      -2.147323     -0.006165     -1.185786
  H      -2.556366      0.903213      0.353772
  H      -1.116577      1.418098     -0.657147
  H      -1.561638     -1.186655      0.884179
  H      -0.446673      0.254018      1.373775
  H       2.079390     -0.798158     -0.875809
11
Coordinates from ORCA-job orca E -52.422980088179
  C      -1.785606      0.611577     -0.367126
  C      -0.820384     -0.422052      0.608393
  C       1.406294     -0.181373     -0.272254
  O       0.102854     -0.925629     -0.194171
  O       1.514430      0.850106      0.245074
  H      -2.134152     -0.006944     -1.184849
  H      -2.552798      0.892428      0.347817
  H      -1.118043      1.416274     -0.651236
  H      -1.552972     -1.182086      0.877114
  H      -0.453369      0.258168      1.375906
  H       2.063192     -0.796378     -0.887303
11
Coordinates from ORCA-job orca E -52.416243273050
  C      -1.806611      0.604049     -0.360361
  C      -0.802874     -0.390152      0.581220
  C       1.382842     -0.147410     -0.354696
  O       0.115396     -0.864674     -0.226020
  O       1.549482      0.777720      0.314283
  H      -2.159626     -0.012065     -1.173466
  H      -2.566612      0.862869      0.365161
  H      -1.173617      1.428282     -0.655462
  H      -1.505311     -1.172516      0.860791
  H      -0.439064      0.286420      1.349071
  H       2.075440     -0.858431     -0.803158
11
Coordinates from ORCA-job orca E -52.423493560709
  C      -1.789577      0.605702     -0.362572
  C      -0.819058     -0.406045      0.601829
  C       1.400881     -0.189155     -0.282523
  O       0.115226     -0.894184     -0.186876
  O       1.537935      0.836074      0.243026
  H      -2.133440     -0.005361     -1.186861
  H      -2.564675      0.875342      0.346986
  H      -1.137116      1.423518     -0.642585
  H      -1.539815     -1.180111      0.863980
  H      -0.464094      0.266282      1.381274
  H       2.063178     -0.817969     -0.878313
11
Coordinates from ORCA-job orca E -52.423610100500
  C      -1.787723      0.606482     -0.361086
  C      -0.819329     -0.408030      0.602193
  C       1.399517     -0.193369     -0.278008
  O       0.117881     -0.898651     -0.186870
  O       1.527457      0.846054      0.227386
  H      -2.134244     -0.001744     -1.187439
  H      -2.563664      0.879073      0.347587
  H      -1.131643      1.422977     -0.640197
  H      -1.542364     -1.182099      0.861252
  H      -0.463228      0.260776      1.385288
  H       2.066785     -0.817377     -0.872744
11
Coordinates from ORCA-job orca E -52.423661337578
  C      -1.786645      0.607470     -0.358404
  C      -0.819868     -0.408714      0.602273
  C       1.395498     -0.196124     -0.279012
  O       0.119087     -0.902206     -0.188267
  O       1.517943      0.856384      0.206013
  H      -2.132164      0.004015     -1.189227
  H      -2.565509      0.878515      0.348299
  H      -1.127954      1.424479     -0.632053
  H      -1.544376     -1.183114      0.857891
  H      -0.461183      0.255227      1.388390
  H       2.074618     -0.821840     -0.858538
11
Coordinates from ORCA-job orca E -52.423676753934
  C      -1.785998      0.606822     -0.357808
  C      -0.820121     -0.406937      0.602939
  C       1.391841     -0.197856     -0.280326
  O       0.119747     -0.902367     -0.187021
  O       1.516008      0.856172      0.202819
  H      -2.130551      0.004859     -1.190124
  H      -2.566770      0.877663      0.346869
  H      -1.125891      1.423564     -0.629290
  H      -1.544412     -1.182199      0.856957
  H      -0.460244      0.254798      1.390073
  H       2.075838     -0.820426     -0.857724
