  11
        -16.99627874
 C          0.8478988805       -3.7178254692       -0.4139170699
 C          1.5845072742       -2.5228615671        0.2332285918
 C         -1.5270436466        4.2663429687       -0.2501724273
 O          1.1196719509       -1.3410281852       -0.0204138879
 O         -2.1368829322        3.6056621408        0.4284597917
 H          0.8956469557       -3.6267849670       -1.4995478239
 H          1.3051219695       -4.6552406840       -0.1007857638
 H         -0.2026660339       -3.6992729369       -0.1175867189
 H          2.6660037878       -2.5960688341       -0.0658666582
 H          1.6106105723       -2.7074371235        1.3394829494
 H         -0.9165646009        4.8639648480       -0.8985676733
