  11
        -17.03970589
 C         -0.7487516041       -0.8879042638        0.0388461707
 C          0.7936723105       -0.8965070034        0.0323146986
 C          0.0343900909        1.1732369387        0.0322041091
 O          1.1193318085        0.5015283893        0.0323110637
 O         -1.0597963480        0.5149772584        0.0284392032
 H         -2.0104543071       -5.7243892523       -2.3812607047
 H         -1.1938482346       -1.3306426400        0.9354554345
 H         -1.2019997004       -1.3528783424       -0.8466640224
 H          1.2385964170       -1.3495168478       -0.8600402221
 H          1.2413545321       -1.3526657577        0.9205986698
 H          0.0362471571        2.2575566046        0.0358913108
