4
Coordinates from ORCA-job orca E -38.044181298140
  C           0.01297896506864      4.36457624316912     -0.01554114824906
  O           1.15354426708402      4.16324610404288     -0.36966069493723
  O          -1.05077215717944      4.45123672194433      0.31895539329497
  H           1.76581299502678      4.89956333084367     -0.59111604010868
