4
Coordinates from ORCA-job orca E -38.040575440283
  C       0.006449      4.412957     -0.015580
  O       1.158736      4.171538     -0.371468
  O      -1.088362      4.413273      0.332452
  H       1.804741      4.880855     -0.602766
4
Coordinates from ORCA-job orca E -38.043678963704
  C       0.009577      4.401016     -0.016040
  O       1.147818      4.168575     -0.367935
  O      -1.057437      4.424184      0.322190
  H       1.781606      4.884848     -0.595578
4
Coordinates from ORCA-job orca E -38.043942064110
  C       0.010944      4.389602     -0.015974
  O       1.148534      4.167055     -0.368141
  O      -1.053188      4.432750      0.320485
  H       1.775275      4.889215     -0.593733
4
Coordinates from ORCA-job orca E -38.044170726808
  C       0.012832      4.368110     -0.015649
  O       1.152072      4.164218     -0.369218
  O      -1.050048      4.448529      0.318838
  H       1.766708      4.897766     -0.591333
4
Coordinates from ORCA-job orca E -38.044180867217
  C       0.012928      4.364949     -0.015544
  O       1.153233      4.163574     -0.369572
  O      -1.050654      4.450861      0.318934
  H       1.766056      4.899238     -0.591181
4
Coordinates from ORCA-job orca E -38.044181298140
  C       0.012979      4.364576     -0.015541
  O       1.153544      4.163246     -0.369661
  O      -1.050772      4.451237      0.318955
  H       1.765813      4.899563     -0.591116
