4
Coordinates from ORCA-job orca E -38.351370558393
  C          -0.01129783587652      4.73842382631709     -0.02290067645162
  O           1.12163967623537      4.12888169902153     -0.35647781578374
  O          -1.01140097822743      4.22592338538490      0.31511031867377
  H           1.78262320786858      4.78539348927646     -0.59309431643840
