4
Coordinates from ORCA-job orca E  -7.072730800503
  C          -3.54424081692472     -3.57438592939224     -0.23091816391772
  H          -3.88137275382035     -3.81731686689611     -1.23875000570986
  H          -3.21636018273355     -4.37056474759460      0.43750427689027
  H          -3.53620957652139     -2.53720661611705      0.10422729273730
