11
Coordinates from ORCA-job orca E -52.423676753934
  C          -1.78599795859347      0.60682173257183     -0.35780833923521
  C          -0.82012147740733     -0.40693699891444      0.60293937154293
  C           1.39184087167473     -0.19785646484288     -0.28032600497017
  O           0.11974711275154     -0.90236689123992     -0.18702070861656
  O           1.51600779216500      0.85617219252898      0.20281878240278
  H          -2.13055100236737      0.00485878519134     -1.19012438823551
  H          -2.56676955228659      0.87766318649178      0.34686894283080
  H          -1.12589086535596      1.42356419267142     -0.62929044465176
  H          -1.54441212820931     -1.18219894456458      0.85695697011216
  H          -0.46024436208163      0.25479845020003      1.39007332208053
  H           2.07583756971040     -0.82042624009358     -0.85772350326000
  11
        -16.92194728
 C          1.3692050607       -4.5245588548       -0.3315252801
 C          3.3232063447       -3.2064820196        0.4146164603
 C         -4.1738924654        6.6080943014        0.2496569192
 O          2.6533566430       -4.0676293348       -0.4072768799
 O         -3.5026877063        5.6722761755        0.1543272442
 H          0.9497350164       -4.9070102234       -1.2409780023
 H          3.1745414268       -4.4187032280       -1.1426534263
 H          0.7679840736       -4.0942988717        0.4429926474
 H          4.3933821771       -3.2505436898        0.3727096879
 H          2.7930336114       -2.8945641862        1.2910565391
 H         -4.7756701060        7.4751438390        0.3269688546
