  11
        -16.92194728
 C          1.3692050607       -4.5245588548       -0.3315252801
 C          3.3232063447       -3.2064820196        0.4146164603
 C         -4.1738924654        6.6080943014        0.2496569192
 O          2.6533566430       -4.0676293348       -0.4072768799
 O         -3.5026877063        5.6722761755        0.1543272442
 H          0.9497350164       -4.9070102234       -1.2409780023
 H          3.1745414268       -4.4187032280       -1.1426534263
 H          0.7679840736       -4.0942988717        0.4429926474
 H          4.3933821771       -3.2505436898        0.3727096879
 H          2.7930336114       -2.8945641862        1.2910565391
 H         -4.7756701060        7.4751438390        0.3269688546
