11
Coordinates from ORCA-job orca E -52.423676753934
  C          -1.78599795859347      0.60682173257183     -0.35780833923521
  C          -0.82012147740733     -0.40693699891444      0.60293937154293
  C           1.39184087167473     -0.19785646484288     -0.28032600497017
  O           0.11974711275154     -0.90236689123992     -0.18702070861656
  O           1.51600779216500      0.85617219252898      0.20281878240278
  H          -2.13055100236737      0.00485878519134     -1.19012438823551
  H          -2.56676955228659      0.87766318649178      0.34686894283080
  H          -1.12589086535596      1.42356419267142     -0.62929044465176
  H          -1.54441212820931     -1.18219894456458      0.85695697011216
  H          -0.46024436208163      0.25479845020003      1.39007332208053
  H           2.07583756971040     -0.82042624009358     -0.85772350326000
  11
        -16.99663203
 C         -3.5289534889       -3.5716114114       -0.2336406956
 C          1.8856413965       -0.1760113341        0.2062635919
 C          0.4964103457        1.6774341586       -0.0561746438
 O          1.7449775790        1.0590558070       -0.1085559642
 O         -0.4995183673        1.0835207783        0.1900726895
 H         -3.8807818698       -3.8154256191       -1.2214894531
 H         -3.2259929257       -4.3650406322        0.4278669661
 H         -3.5424550435       -2.5473965004        0.0993265787
 H          2.8850025476       -0.5837999947        0.1233182584
 H          1.0450072365       -0.7725427201        0.5516846152
 H          0.6162102724        2.7429202989       -0.2790391073
