  11
        -16.99663203
 C         -3.5289534889       -3.5716114114       -0.2336406956
 C          1.8856413965       -0.1760113341        0.2062635919
 C          0.4964103457        1.6774341586       -0.0561746438
 O          1.7449775790        1.0590558070       -0.1085559642
 O         -0.4995183673        1.0835207783        0.1900726895
 H         -3.8807818698       -3.8154256191       -1.2214894531
 H         -3.2259929257       -4.3650406322        0.4278669661
 H         -3.5424550435       -2.5473965004        0.0993265787
 H          2.8850025476       -0.5837999947        0.1233182584
 H          1.0450072365       -0.7725427201        0.5516846152
 H          0.6162102724        2.7429202989       -0.2790391073
