4
Coordinates from ORCA-job orca E -38.325307180775
  C           0.12546371272821      2.59105049447712     -0.04471972396898
  O           1.28230321206752      2.50987637514669     -0.39735105295086
  O          -0.81096800526975      1.97493303697392      0.42295329571428
  H          -0.23140613952598      3.67586029340227     -0.21930430879444
