4
Coordinates from ORCA-job orca E -38.323604052582
  C       0.129904      2.578724     -0.038016
  O       1.268155      2.494902     -0.390624
  O      -0.792757      1.961860      0.418711
  H      -0.239909      3.716234     -0.228493
4
Coordinates from ORCA-job orca E -38.325140790589
  C       0.127077      2.582820     -0.042214
  O       1.278136      2.509894     -0.396323
  O      -0.808094      1.973061      0.422209
  H      -0.231727      3.685945     -0.222093
4
Coordinates from ORCA-job orca E -38.325286863274
  C       0.125623      2.586803     -0.043793
  O       1.281703      2.514571     -0.398352
  O      -0.813202      1.977106      0.423155
  H      -0.228731      3.673240     -0.219431
4
Coordinates from ORCA-job orca E -38.325297194940
  C       0.125566      2.587700     -0.043962
  O       1.282072      2.513135     -0.398108
  O      -0.812684      1.976068      0.423245
  H      -0.229562      3.674817     -0.219597
4
Coordinates from ORCA-job orca E -38.325305422593
  C       0.125380      2.590382     -0.044511
  O       1.282299      2.510395     -0.397489
  O      -0.811309      1.974712      0.423122
  H      -0.230978      3.676232     -0.219543
4
Coordinates from ORCA-job orca E -38.325307180775
  C       0.125464      2.591050     -0.044720
  O       1.282303      2.509876     -0.397351
  O      -0.810968      1.974933      0.422953
  H      -0.231406      3.675860     -0.219304
