  11
        -16.97258897
 C          0.6177073165       -2.1720292238       -0.2280313726
 C          0.7905282046       -0.7910271668        0.1183319940
 C          1.8488937849        1.3217796381       -0.1629382184
 O          1.4348219413        0.2041002671        0.0152976915
 O         -3.6200810945        1.2272415831        0.1932676329
 H          1.3087570437       -2.7987936723        0.3466006340
 H         -0.3949810150       -2.5046089864        0.0085541969
 H          0.7975384093       -2.3393507730       -1.2967407917
 H         -4.1038757813        1.2703638754        1.0272026325
 H         -4.2638071736        1.2655536642       -0.5264691043
 H          2.5314496271        1.9442727900        0.3790006774
