8
Coordinates from ORCA-job orca E -29.949635309919
  C       1.369205     -4.524559     -0.331525
  C       3.323206     -3.206482      0.414616
  O       2.653357     -4.067629     -0.407277
  H       0.949735     -4.907010     -1.240978
  H       3.174541     -4.418703     -1.142653
  H       0.767984     -4.094299      0.442993
  H       4.393382     -3.250544      0.372710
  H       2.793034     -2.894564      1.291057
8
Coordinates from ORCA-job orca E -29.951869436785
  C       1.372851     -4.515037     -0.331012
  C       3.318066     -3.216482      0.417927
  O       2.642712     -4.061847     -0.389273
  H       0.980694     -4.901817     -1.257714
  H       3.168591     -4.413546     -1.139169
  H       0.772822     -4.103053      0.464010
  H       4.392200     -3.276116      0.348724
  H       2.776509     -2.875892      1.285449
8
Coordinates from ORCA-job orca E -29.952770192703
  C       1.367656     -4.498285     -0.338259
  C       3.320850     -3.232772      0.430917
  O       2.630689     -4.054698     -0.369367
  H       1.015360     -4.904413     -1.272520
  H       3.155165     -4.402641     -1.126662
  H       0.771093     -4.120503      0.476993
  H       4.390983     -3.298251      0.319665
  H       2.772649     -2.852228      1.278174
8
Coordinates from ORCA-job orca E -29.953051309227
  C       1.358272     -4.484523     -0.346901
  C       3.327385     -3.244812      0.444751
  O       2.625452     -4.051331     -0.361000
  H       1.031000     -4.917855     -1.276604
  H       3.147995     -4.396816     -1.119827
  H       0.762985     -4.124695      0.476060
  H       4.393027     -3.298360      0.301095
  H       2.778327     -2.845398      1.281368
8
Coordinates from ORCA-job orca E -29.953260882070
  C       1.345998     -4.465414     -0.358708
  C       3.335594     -3.260861      0.462837
  O       2.621603     -4.048738     -0.355452
  H       1.046290     -4.944047     -1.273372
  H       3.142089     -4.392262     -1.113981
  H       0.751030     -4.114997      0.466441
  H       4.394255     -3.284651      0.277057
  H       2.787586     -2.852821      1.294121
8
Coordinates from ORCA-job orca E -29.953353194464
  C       1.339215     -4.450350     -0.367204
  C       3.339877     -3.273720      0.474583
  O       2.620603     -4.048023     -0.354272
  H       1.054766     -4.967399     -1.264992
  H       3.140632     -4.391391     -1.111994
  H       0.742805     -4.097334      0.455020
  H       4.392600     -3.266055      0.259428
  H       2.793946     -2.869518      1.308373
8
Coordinates from ORCA-job orca E -29.953426294650
  C       1.334536     -4.433841     -0.376200
  C       3.342936     -3.288547      0.485186
  O       2.620554     -4.047929     -0.354485
  H       1.061549     -4.993025     -1.251828
  H       3.141025     -4.392122     -1.111366
  H       0.735182     -4.073552      0.440531
  H       4.388286     -3.241625      0.241940
  H       2.800378     -2.893150      1.325162
8
Coordinates from ORCA-job orca E -29.953463847273
  C       1.332050     -4.419598     -0.384262
  C       3.345107     -3.302214      0.493097
  O       2.620824     -4.048004     -0.354974
  H       1.065682     -5.013971     -1.238729
  H       3.142140     -4.393236     -1.111442
  H       0.729391     -4.053286      0.427637
  H       4.383154     -3.219567      0.228868
  H       2.806097     -2.913914      1.338748
8
Coordinates from ORCA-job orca E -29.953472004326
  C       1.331485     -4.414354     -0.387583
  C       3.346046     -3.307768      0.495802
  O       2.620877     -4.048024     -0.355075
  H       1.066054     -5.020743     -1.234002
  H       3.142570     -4.393599     -1.111606
  H       0.727108     -4.047937      0.423158
  H       4.381546     -3.211791      0.225412
  H       2.808758     -2.919574      1.342835
8
Coordinates from ORCA-job orca E -29.953474512888
  C       1.331182     -4.412532     -0.388979
  C       3.346674     -3.309994      0.496931
  O       2.620696     -4.047919     -0.354753
  H       1.065858     -5.022031     -1.233239
  H       3.142456     -4.393432     -1.111527
  H       0.726104     -4.048651      0.422443
  H       4.381446     -3.210343      0.224983
  H       2.810029     -2.918889      1.343084
