8
Coordinates from ORCA-job orca E -29.953474512888
  C           1.33118214261890     -4.41253170581486     -0.38897941375172
  C           3.34667362549569     -3.30999379366941      0.49693109716215
  O           2.62069589338969     -4.04791875637099     -0.35475281722285
  H           1.06585803464853     -5.02203109716341     -1.23323937029857
  H           3.14245562597956     -4.39343245822170     -1.11152740296902
  H           0.72610389968158     -4.04865107616884      0.42244263846093
  H           4.38144589229094     -3.21034278273436      0.22498311116292
  H           2.81002923589510     -2.91888872985642      1.34308390745616
