10
Coordinates from ORCA-job orca E -52.123766815650
  C          -0.74125937642502     -0.88101928009999      0.03894964557534
  C           0.78740493713522     -0.88823944167727      0.03222766704894
  C           0.03308344548049      1.22866176835008      0.03260838054838
  O           1.16325540403208      0.47635692047299      0.04504851885664
  O          -1.10411469952174      0.48680196068719      0.01265393850701
  H          -1.15443584667472     -1.33812414700351      0.93697754041926
  H          -1.16284987982665     -1.37234958228254     -0.83635411843458
  H           1.19662805969680     -1.35746155722016     -0.86125602152228
  H           1.20424578478178     -1.37568951386391      0.91206997474912
  H           0.03723861132174      2.29824721263712      0.03643088425217
