10
Coordinates from ORCA-job orca E -52.109114155097
  C      -0.748752     -0.887904      0.038846
  C       0.793672     -0.896507      0.032315
  C       0.034390      1.173237      0.032204
  O       1.119332      0.501528      0.032311
  O      -1.059796      0.514977      0.028439
  H      -1.193848     -1.330643      0.935455
  H      -1.202000     -1.352878     -0.846664
  H       1.238596     -1.349517     -0.860040
  H       1.241355     -1.352666      0.920599
  H       0.036247      2.257557      0.035891
10
Coordinates from ORCA-job orca E -52.122033506419
  C      -0.745001     -0.885386      0.038545
  C       0.790565     -0.893179      0.032630
  C       0.033942      1.206367      0.031870
  O       1.151643      0.486738      0.034512
  O      -1.092016      0.498206      0.025031
  H      -1.174013     -1.336771      0.931421
  H      -1.180657     -1.359002     -0.839545
  H       1.216991     -1.355308     -0.855952
  H       1.221589     -1.362663      0.915095
  H       0.036152      2.278182      0.035750
10
Coordinates from ORCA-job orca E -52.123678234312
  C      -0.740752     -0.882645      0.038639
  C       0.786720     -0.890111      0.032666
  C       0.033517      1.223735      0.031957
  O       1.161393      0.478752      0.037756
  O      -1.101942      0.489414      0.021082
  H      -1.158503     -1.340807      0.933494
  H      -1.165847     -1.365353     -0.839335
  H       1.200819     -1.359690     -0.857854
  H       1.207176     -1.369305      0.914909
  H       0.036615      2.293194      0.036044
10
Coordinates from ORCA-job orca E -52.123757671479
  C      -0.740827     -0.881482      0.038797
  C       0.786909     -0.888811      0.032472
  C       0.033258      1.227960      0.032186
  O       1.163232      0.476654      0.041091
  O      -1.103998      0.487194      0.017196
  H      -1.155150     -1.340491      0.935268
  H      -1.163076     -1.369085     -0.838286
  H       1.197346     -1.359567     -0.859574
  H       1.204485     -1.372696      0.913913
  H       0.037018      2.297510      0.036293
10
Coordinates from ORCA-job orca E -52.123766815650
  C      -0.741259     -0.881019      0.038950
  C       0.787405     -0.888239      0.032228
  C       0.033083      1.228662      0.032608
  O       1.163255      0.476357      0.045049
  O      -1.104115      0.486802      0.012654
  H      -1.154436     -1.338124      0.936978
  H      -1.162850     -1.372350     -0.836354
  H       1.196628     -1.357462     -0.861256
  H       1.204246     -1.375690      0.912070
  H       0.037239      2.298247      0.036431
