11
Coordinates from ORCA-job orca E -52.423676753934
  C          -1.78599795859347      0.60682173257183     -0.35780833923521
  C          -0.82012147740733     -0.40693699891444      0.60293937154293
  C           1.39184087167473     -0.19785646484288     -0.28032600497017
  O           0.11974711275154     -0.90236689123992     -0.18702070861656
  O           1.51600779216500      0.85617219252898      0.20281878240278
  H          -2.13055100236737      0.00485878519134     -1.19012438823551
  H          -2.56676955228659      0.87766318649178      0.34686894283080
  H          -1.12589086535596      1.42356419267142     -0.62929044465176
  H          -1.54441212820931     -1.18219894456458      0.85695697011216
  H          -0.46024436208163      0.25479845020003      1.39007332208053
  H           2.07583756971040     -0.82042624009358     -0.85772350326000
  11
        -16.96600754
 C         -0.1649666206       -1.8292388393       -0.4587588996
 C          0.5422416412       -0.9120944649        0.3969201306
 C          0.0488378825        1.3326267883       -0.1216159865
 O          0.8997483058        0.3293180183       -0.1983647818
 O         -1.0300027999        1.3141293039        0.3853204820
 H         -0.4420255985       -1.5595837185       -1.4663695877
 H         -0.3604062470       -2.8288431665       -0.1060300919
 H         -4.1662368202       -5.0230580990       -0.6700164270
 H          1.4946718327       -1.3692144171        0.7372904881
 H         -0.0272662902       -0.7412687140        1.3380821350
 H          0.4912298965        2.2212455783       -0.6145037761
