7
Coordinates from ORCA-job orca E -44.935638570685
  C       1.885641     -0.176011      0.206264
  C       0.496410      1.677434     -0.056175
  O       1.744978      1.059056     -0.108556
  O      -0.499518      1.083521      0.190073
  H       2.885003     -0.583800      0.123318
  H       1.045007     -0.772543      0.551685
  H       0.616210      2.742920     -0.279039
7
Coordinates from ORCA-job orca E -44.941835767737
  C       1.888663     -0.165700      0.209991
  C       0.486796      1.678051     -0.052943
  O       1.771421      1.039439     -0.105191
  O      -0.480396      1.072339      0.197998
  H       2.886750     -0.589366      0.123688
  H       1.021015     -0.742278      0.536374
  H       0.599482      2.738093     -0.282347
7
Coordinates from ORCA-job orca E -44.944875457948
  C       1.894164     -0.168339      0.188343
  C       0.462052      1.685862     -0.053613
  O       1.800620      1.016974     -0.114627
  O      -0.472790      1.064196      0.210962
  H       2.894033     -0.599044      0.147948
  H       1.008261     -0.713591      0.526353
  H       0.587391      2.744519     -0.277796
7
Coordinates from ORCA-job orca E -44.945466753513
  C       1.910356     -0.161927      0.225043
  C       0.441709      1.704312     -0.025211
  O       1.825064      1.019243     -0.087512
  O      -0.477165      1.061735      0.221056
  H       2.893221     -0.622132      0.125939
  H       1.003750     -0.714452      0.490797
  H       0.576796      2.743798     -0.322542
7
Coordinates from ORCA-job orca E -44.944790064257
  C       1.917011     -0.165512      0.221651
  C       0.406033      1.699753     -0.097150
  O       1.837050      1.016718     -0.111163
  O      -0.478205      1.071010      0.273053
  H       2.901820     -0.628935      0.164866
  H       1.005221     -0.719962      0.465737
  H       0.584802      2.757505     -0.289425
7
Coordinates from ORCA-job orca E -44.946121440285
  C       1.912338     -0.181432      0.170952
  C       0.407812      1.715721     -0.043238
  O       1.839644      1.020500     -0.113792
  O      -0.497314      1.065360      0.235042
  H       2.904757     -0.631196      0.174905
  H       1.018817     -0.718018      0.503979
  H       0.587676      2.759642     -0.300278
7
Coordinates from ORCA-job orca E -44.946639708983
  C       1.913405     -0.168575      0.200625
  C       0.413831      1.711072     -0.039042
  O       1.838128      1.022799     -0.096723
  O      -0.491904      1.064911      0.240456
  H       2.898794     -0.629936      0.153850
  H       1.013368     -0.720167      0.485853
  H       0.588111      2.750474     -0.317449
7
Coordinates from ORCA-job orca E -44.946678550298
  C       1.913528     -0.169038      0.197758
  C       0.409479      1.711298     -0.043852
  O       1.838746      1.023808     -0.097062
  O      -0.493164      1.066122      0.246537
  H       2.899681     -0.629810      0.158545
  H       1.014411     -0.722505      0.482662
  H       0.591050      2.750701     -0.317020
7
Coordinates from ORCA-job orca E -44.946688338345
  C       1.913299     -0.168519      0.196838
  C       0.407396      1.711866     -0.043351
  O       1.838379      1.025118     -0.094486
  O      -0.494117      1.066673      0.249704
  H       2.899653     -0.629111      0.159467
  H       1.015242     -0.724751      0.479699
  H       0.593880      2.749299     -0.320302
