7
Coordinates from ORCA-job orca E -44.946688338345
  C           1.91329856538455     -0.16851859463163      0.19683838371180
  C           0.40739591371106      1.71186589292349     -0.04335082623984
  O           1.83837903142188      1.02511843088328     -0.09448620808345
  O          -0.49411654569776      1.06667349054907      0.24970378311458
  H           2.89965268915768     -0.62911057055493      0.15946709385963
  H           1.01524181010958     -0.72475083114096      0.47969920860523
  H           0.59387955591301      2.74929919197168     -0.32030198496796
