8
Coordinates from ORCA-job orca E -30.203853122510
  C       1.369205     -4.524559     -0.331525
  C       3.323206     -3.206482      0.414616
  O       2.653357     -4.067629     -0.407277
  H       0.949735     -4.907010     -1.240978
  H       3.174541     -4.418703     -1.142653
  H       0.767984     -4.094299      0.442993
  H       4.393382     -3.250544      0.372710
  H       2.793034     -2.894564      1.291057
8
Coordinates from ORCA-job orca E -30.212090547103
  C       1.366344     -4.579365     -0.304664
  C       3.322379     -3.149680      0.392867
  O       2.656829     -4.069771     -0.412395
  H       0.952232     -4.881230     -1.248997
  H       3.174045     -4.418404     -1.141673
  H       0.777223     -4.077198      0.438963
  H       4.389290     -3.275199      0.382725
  H       2.786104     -2.912944      1.292115
8
Coordinates from ORCA-job orca E -30.218300111092
  C       1.365018     -4.634773     -0.271946
  C       3.316268     -3.090221      0.370799
  O       2.658212     -4.070554     -0.414357
  H       0.965637     -4.851895     -1.251015
  H       3.174960     -4.419229     -1.143262
  H       0.798421     -4.048947      0.432697
  H       4.374293     -3.303106      0.387015
  H       2.771637     -2.945066      1.289012
8
Coordinates from ORCA-job orca E -30.220348858568
  C       1.367132     -4.671641     -0.252685
  C       3.312989     -3.053640      0.353211
  O       2.660532     -4.071940     -0.417614
  H       0.966217     -4.825308     -1.246854
  H       3.176859     -4.420598     -1.146253
  H       0.815246     -4.039508      0.428193
  H       4.361192     -3.320727      0.401498
  H       2.764277     -2.960428      1.279446
8
Coordinates from ORCA-job orca E -30.221347149868
  C       1.377667     -4.703977     -0.245741
  C       3.314458     -3.031368      0.329195
  O       2.667960     -4.076717     -0.428432
  H       0.943336     -4.778631     -1.237564
  H       3.183975     -4.425069     -1.156545
  H       0.838082     -4.064046      0.441592
  H       4.347509     -3.341894      0.446479
  H       2.751457     -2.942088      1.249957
8
Coordinates from ORCA-job orca E -30.222131993517
  C       1.391970     -4.724915     -0.254106
  C       3.322167     -3.028751      0.305813
  O       2.679094     -4.083819     -0.444401
  H       0.904631     -4.718738     -1.226409
  H       3.195783     -4.432209     -1.172714
  H       0.867840     -4.118904      0.477503
  H       4.335215     -3.365598      0.510839
  H       2.727745     -2.890856      1.202416
8
Coordinates from ORCA-job orca E -30.223350533277
  C       1.414388     -4.748524     -0.281242
  C       3.339647     -3.042022      0.272747
  O       2.699588     -4.096561     -0.473441
  H       0.837359     -4.598756     -1.194913
  H       3.218571     -4.445579     -1.201449
  H       0.937126     -4.239564      0.552648
  H       4.300602     -3.410684      0.631233
  H       2.677163     -2.782101      1.093361
8
Coordinates from ORCA-job orca E -30.224437377614
  C       1.423195     -4.754343     -0.302432
  C       3.348035     -3.061789      0.262040
  O       2.711887     -4.104252     -0.489641
  H       0.801100     -4.514784     -1.167621
  H       3.233735     -4.454554     -1.215534
  H       0.991577     -4.327608      0.600592
  H       4.271686     -3.437869      0.702558
  H       2.643228     -2.708592      1.008981
8
Coordinates from ORCA-job orca E -30.226046797554
  C       1.423668     -4.748772     -0.320647
  C       3.344801     -3.093392      0.266803
  O       2.722304     -4.109795     -0.500164
  H       0.779405     -4.430088     -1.142245
  H       3.249186     -4.463425     -1.220039
  H       1.054052     -4.414715      0.645944
  H       4.246438     -3.461234      0.752123
  H       2.604590     -2.642368      0.917167
8
Coordinates from ORCA-job orca E -30.227712090792
  C       1.420043     -4.751983     -0.336080
  C       3.332648     -3.122862      0.274072
  O       2.733674     -4.116191     -0.512027
  H       0.764601     -4.333497     -1.101316
  H       3.268744     -4.475446     -1.222113
  H       1.121595     -4.496492      0.677450
  H       4.214328     -3.479575      0.797576
  H       2.568812     -2.587744      0.821379
8
Coordinates from ORCA-job orca E -30.230019366543
  C       1.401393     -4.764738     -0.357024
  C       3.296577     -3.166512      0.293659
  O       2.752017     -4.123291     -0.531851
  H       0.760250     -4.183856     -1.020452
  H       3.306571     -4.498745     -1.216579
  H       1.221970     -4.600501      0.702703
  H       4.166833     -3.495248      0.844634
  H       2.518832     -2.530898      0.683851
8
Coordinates from ORCA-job orca E -30.231891005402
  C       1.390770     -4.773967     -0.404164
  C       3.283124     -3.182646      0.287835
  O       2.766958     -4.120114     -0.563486
  H       0.718678     -4.030382     -0.842081
  H       3.342981     -4.516509     -1.218738
  H       1.316955     -4.814506      0.683203
  H       4.035521     -3.529556      0.984074
  H       2.569457     -2.396110      0.472299
8
Coordinates from ORCA-job orca E -30.233659439011
  C       1.361648     -4.800661     -0.425959
  C       3.255179     -3.183686      0.294782
  O       2.780230     -4.108028     -0.611502
  H       0.731401     -3.968949     -0.754266
  H       3.382098     -4.552028     -1.209371
  H       1.362824     -4.843294      0.667613
  H       3.984922     -3.541125      1.006195
  H       2.566142     -2.366019      0.431450
8
Coordinates from ORCA-job orca E -30.235263496954
  C       1.363872     -4.803904     -0.437969
  C       3.260591     -3.170390      0.271254
  O       2.789473     -4.075052     -0.666492
  H       0.709318     -3.959866     -0.674904
  H       3.410274     -4.574376     -1.192460
  H       1.387362     -4.883951      0.655643
  H       3.896968     -3.571939      1.044139
  H       2.606586     -2.324313      0.399731
8
Coordinates from ORCA-job orca E -30.237622958418
  C       1.380604     -4.800999     -0.428710
  C       3.248381     -3.168357      0.236537
  O       2.803678     -3.995458     -0.780055
  H       0.697877     -3.965813     -0.613021
  H       3.447346     -4.607912     -1.125136
  H       1.460549     -4.851659      0.667392
  H       3.772390     -3.657086      1.041607
  H       2.613619     -2.316507      0.400327
8
Coordinates from ORCA-job orca E -30.237939533853
  C       1.402055     -4.790318     -0.415964
  C       3.243450     -3.173386      0.217295
  O       2.804906     -3.943278     -0.844735
  H       0.688909     -3.980222     -0.608722
  H       3.444211     -4.622801     -1.065619
  H       1.525416     -4.809589      0.678415
  H       3.709400     -3.716996      1.027732
  H       2.606097     -2.327201      0.410540
8
Coordinates from ORCA-job orca E -30.238526407460
  C       1.390010     -4.790727     -0.420786
  C       3.258257     -3.166298      0.229129
  O       2.791182     -3.964273     -0.798480
  H       0.675877     -3.990598     -0.648733
  H       3.430955     -4.621207     -1.086985
  H       1.495354     -4.821908      0.673112
  H       3.774815     -3.681079      1.029924
  H       2.607995     -2.327700      0.421760
8
Coordinates from ORCA-job orca E -30.238649035923
  C       1.388465     -4.792758     -0.426961
  C       3.255668     -3.168195      0.233037
  O       2.785429     -3.961914     -0.793261
  H       0.678087     -3.989702     -0.648657
  H       3.419806     -4.623236     -1.077392
  H       1.503511     -4.827820      0.664536
  H       3.780632     -3.677466      1.030398
  H       2.612846     -2.322700      0.417241
8
Coordinates from ORCA-job orca E -30.238693677390
  C       1.390952     -4.793239     -0.429480
  C       3.258629     -3.165805      0.233381
  O       2.781475     -3.957182     -0.792177
  H       0.676647     -3.995945     -0.657258
  H       3.409807     -4.627729     -1.068300
  H       1.503920     -4.824157      0.662268
  H       3.789994     -3.675579      1.025668
  H       2.613021     -2.324156      0.424840
8
Coordinates from ORCA-job orca E -30.238718006960
  C       1.392678     -4.793818     -0.432165
  C       3.258878     -3.163995      0.234045
  O       2.781328     -3.954363     -0.791810
  H       0.677341     -3.997355     -0.659454
  H       3.403988     -4.632082     -1.062574
  H       1.501631     -4.824472      0.660354
  H       3.796631     -3.673201      1.021700
  H       2.611969     -2.324503      0.428845
8
Coordinates from ORCA-job orca E -30.238735384330
  C       1.393768     -4.794035     -0.435226
  C       3.259099     -3.161670      0.234981
  O       2.783248     -3.952330     -0.790924
  H       0.677158     -3.997435     -0.660080
  H       3.399380     -4.637483     -1.058702
  H       1.497335     -4.827085      0.658255
  H       3.804270     -3.669418      1.018480
  H       2.610186     -2.324334      0.432158
8
Coordinates from ORCA-job orca E -30.238740244331
  C       1.393280     -4.794205     -0.435566
  C       3.259619     -3.160763      0.235569
  O       2.785023     -3.952157     -0.790127
  H       0.676201     -3.998234     -0.662382
  H       3.398634     -4.639457     -1.058623
  H       1.494086     -4.825372      0.658322
  H       3.810030     -3.667170      1.016452
  H       2.607571     -2.326433      0.435296
