4
Coordinates from ORCA-job orca E -37.845932776168
  C       0.129904      2.578724     -0.038016
  O       1.268155      2.494902     -0.390624
  O      -0.792757      1.961860      0.418711
  H      -0.239909      3.716234     -0.228493
4
Coordinates from ORCA-job orca E -37.859669816639
  C       0.141598      2.540579     -0.032601
  O       1.274726      2.539707     -0.404250
  O      -0.823381      1.999963      0.418911
  H      -0.227550      3.671472     -0.220483
4
Coordinates from ORCA-job orca E -37.876976996813
  C       0.163964      2.469698     -0.021747
  O       1.263449      2.604941     -0.417557
  O      -0.850964      2.064173      0.411155
  H      -0.211056      3.612908     -0.210273
4
Coordinates from ORCA-job orca E -37.884833764538
  C       0.180388      2.421266     -0.013900
  O       1.252011      2.644175     -0.424369
  O      -0.864494      2.104773      0.404652
  H      -0.202512      3.581505     -0.204805
4
Coordinates from ORCA-job orca E -37.890123865122
  C       0.205590      2.363969     -0.003475
  O       1.248765      2.668052     -0.431093
  O      -0.874250      2.140850      0.396739
  H      -0.214713      3.578850     -0.200594
4
Coordinates from ORCA-job orca E -37.891733843199
  C       0.251492      2.271938     -0.007665
  O       1.265858      2.663840     -0.427862
  O      -0.865773      2.199494      0.385814
  H      -0.286184      3.616449     -0.188708
4
Coordinates from ORCA-job orca E -37.919568216418
  C       0.314285      2.170082     -0.031318
  O       1.302584      2.632662     -0.414363
  O      -0.816079      2.349035      0.346300
  H      -0.435398      3.599941     -0.139041
4
Coordinates from ORCA-job orca E -37.965213643991
  C       0.370711      2.082673     -0.046521
  O       1.343405      2.580142     -0.401799
  O      -0.731929      2.529293      0.279992
  H      -0.616794      3.559612     -0.070094
4
Coordinates from ORCA-job orca E -37.854413639235
  C       0.392729      2.149098     -0.070288
  O       1.426679      2.492411     -0.404581
  O      -0.718479      2.716614      0.223293
  H      -0.735537      3.393597      0.013154
4
Coordinates from ORCA-job orca E -37.997437923966
  C       0.375895      2.169832     -0.069522
  O       1.405747      2.511356     -0.403904
  O      -0.750603      2.552775      0.286087
  H      -0.665646      3.517758     -0.051082
4
Coordinates from ORCA-job orca E -38.010508956638
  C       0.380682      2.243220     -0.065654
  O       1.428240      2.465929     -0.412143
  O      -0.763293      2.543146      0.277434
  H      -0.680235      3.499426     -0.038058
4
Coordinates from ORCA-job orca E -38.030374102769
  C       0.430942      2.334435     -0.051887
  O       1.473062      2.346726     -0.422623
  O      -0.714794      2.558504      0.221610
  H      -0.823817      3.512055      0.014479
4
Coordinates from ORCA-job orca E -38.034798386970
  C       0.542104      2.477909     -0.117507
  O       1.599175      2.077764     -0.396904
  O      -0.586508      2.724557      0.126385
  H      -1.189379      3.471490      0.149605
4
Coordinates from ORCA-job orca E -38.038285114369
  C       0.529018      2.486184     -0.147522
  O       1.571758      2.123948     -0.380627
  O      -0.615584      2.608145      0.169070
  H      -1.119799      3.533443      0.120657
4
Coordinates from ORCA-job orca E -38.036323254276
  C       0.505229      2.423038     -0.144263
  O       1.533285      2.194739     -0.374564
  O      -0.644320      2.646439      0.174192
  H      -1.028801      3.487504      0.106213
4
Coordinates from ORCA-job orca E -38.043128342050
  C       0.523394      2.470197     -0.101535
  O       1.550072      2.154048     -0.402248
  O      -0.645189      2.624601      0.155217
  H      -1.062885      3.502875      0.110145
4
Coordinates from ORCA-job orca E -38.043552560076
  C       0.520192      2.471899     -0.131771
  O       1.562438      2.146974     -0.387472
  O      -0.640890      2.621338      0.164526
  H      -1.076347      3.511509      0.116296
4
Coordinates from ORCA-job orca E -38.043970224374
  C       0.517627      2.460784     -0.139151
  O       1.565876      2.151589     -0.383750
  O      -0.641154      2.630008      0.166485
  H      -1.076956      3.509339      0.117995
4
Coordinates from ORCA-job orca E -38.044138089128
  C       0.508646      2.439838     -0.135671
  O       1.563158      2.174098     -0.385634
  O      -0.651753      2.621610      0.172425
  H      -1.054659      3.516174      0.110459
4
Coordinates from ORCA-job orca E -38.044173971872
  C       0.509650      2.439379     -0.135176
  O       1.566256      2.170587     -0.386210
  O      -0.648552      2.626099      0.170309
  H      -1.061961      3.515656      0.112656
4
Coordinates from ORCA-job orca E -38.044179461005
  C       0.510256      2.440358     -0.132495
  O       1.565340      2.170171     -0.387495
  O      -0.648154      2.625562      0.169082
  H      -1.062049      3.515628      0.112486
4
Coordinates from ORCA-job orca E -38.044179929565
  C       0.509970      2.439738     -0.132306
  O       1.565171      2.170822     -0.387565
  O      -0.648358      2.625521      0.169158
  H      -1.061390      3.515639      0.112292
