4
 energy: -10.259099632951 gnorm: 0.039472160801 xtb: 6.7.1 (edcfbbe)
C            0.54218323987338        2.45150124211599       -0.14431270429159
O            1.57741108237439        2.11189557220523       -0.37741066285629
O           -0.58539432319586        2.69754132245216        0.13373776183063
H           -1.16875175550054        3.49077973375056        0.14954377456588
