3
Coordinates from ORCA-job orca E -21.957369383315
  C      -1.527044      4.266343     -0.250172
  O      -2.136883      3.605662      0.428460
  H      -0.916565      4.863965     -0.898568
3
Coordinates from ORCA-job orca E -21.959688471846
  C      -1.535161      4.254702     -0.239670
  O      -2.132974      3.611580      0.423259
  H      -0.912356      4.869687     -0.903870
3
Coordinates from ORCA-job orca E -21.959704872729
  C      -1.533707      4.253378     -0.239813
  O      -2.133858      3.612077      0.423511
  H      -0.912926      4.870515     -0.903978
3
Coordinates from ORCA-job orca E -21.959739902307
  C      -1.527038      4.247032     -0.240355
  O      -2.137261      3.615169      0.423891
  H      -0.916191      4.873769     -0.903816
3
Coordinates from ORCA-job orca E -21.959741441461
  C      -1.526298      4.245957     -0.240253
  O      -2.137601      3.615738      0.423808
  H      -0.916592      4.874275     -0.903835
