3
 energy: -6.121837707314 gnorm: 0.040294891510 xtb: 6.7.1 (edcfbbe)
C           -1.52810158720842        4.24403690893091       -0.23850006885425
O           -2.13359800457898        3.61987829786989        0.41959380267217
H           -0.91872741707589        4.87207747928783       -0.90138028334288
