8
Coordinates from ORCA-job orca E -35.239185136280
  C       0.617707     -2.172029     -0.228031
  C       0.790528     -0.791027      0.118332
  C       1.848894      1.321780     -0.162938
  O       1.434822      0.204100      0.015298
  H       1.308757     -2.798794      0.346601
  H      -0.394981     -2.504609      0.008554
  H       0.797538     -2.339351     -1.296741
  H       2.531450      1.944273      0.379001
8
Coordinates from ORCA-job orca E -35.267999238646
  C       0.625597     -2.144915     -0.219570
  C       0.660858     -0.753572      0.184531
  C       1.838586      1.323275     -0.225243
  O       1.349361      0.222135      0.013345
  H       1.358406     -2.724499      0.349027
  H      -0.354421     -2.567063     -0.015442
  H       0.848957     -2.274249     -1.286590
  H       2.607371      1.783230      0.380017
8
Coordinates from ORCA-job orca E -35.297203695111
  C       0.641980     -2.088739     -0.207105
  C       0.499903     -0.718299      0.276213
  C       1.837803      1.275537     -0.308986
  O       1.258801      0.212464      0.017563
  H       1.421886     -2.605287      0.358181
  H      -0.288876     -2.620958     -0.051207
  H       0.913519     -2.145059     -1.269204
  H       2.649701      1.554684      0.364620
8
Coordinates from ORCA-job orca E -35.308905177895
  C       0.655126     -2.040968     -0.197630
  C       0.390977     -0.700103      0.341089
  C       1.838467      1.218425     -0.364883
  O       1.203575      0.190841      0.022961
  H       1.462452     -2.511246      0.369519
  H      -0.233803     -2.649432     -0.082518
  H       0.957030     -2.032340     -1.251412
  H       2.660892      1.389167      0.342949
8
Coordinates from ORCA-job orca E -35.311771101834
  C       0.666965     -1.995626     -0.188968
  C       0.295646     -0.686324      0.405180
  C       1.827649      1.162913     -0.410088
  O       1.156318      0.166940      0.031642
  H       1.489593     -2.422840      0.389766
  H      -0.176273     -2.675709     -0.126024
  H       1.003777     -1.909397     -1.224958
  H       2.671041      1.224386      0.303525
8
Coordinates from ORCA-job orca E -35.312094276281
  C       0.661475     -2.010471     -0.191817
  C       0.317384     -0.689123      0.400660
  C       1.825096      1.181481     -0.401353
  O       1.171252      0.174306      0.033815
  H       1.475248     -2.448469      0.391213
  H      -0.191881     -2.678194     -0.127521
  H       1.001495     -1.929737     -1.226930
  H       2.674647      1.264550      0.302008
8
Coordinates from ORCA-job orca E -35.312189785514
  C       0.659513     -2.015056     -0.192949
  C       0.324121     -0.692430      0.409846
  C       1.817699      1.186911     -0.400221
  O       1.178019      0.173059      0.039230
  H       1.463858     -2.460018      0.397931
  H      -0.197564     -2.678199     -0.139544
  H       1.010851     -1.925647     -1.223471
  H       2.678219      1.275724      0.289253
8
Coordinates from ORCA-job orca E -35.312327527704
  C       0.658080     -2.020973     -0.195092
  C       0.339385     -0.702097      0.434754
  C       1.795555      1.196518     -0.397466
  O       1.192145      0.166238      0.053500
  H       1.436602     -2.486493      0.414460
  H      -0.210202     -2.670026     -0.170940
  H       1.038633     -1.912814     -1.213018
  H       2.684517      1.293989      0.253877
8
Coordinates from ORCA-job orca E -35.312453088100
  C       0.659295     -2.025182     -0.197230
  C       0.362970     -0.715457      0.464863
  C       1.765023      1.208228     -0.392050
  O       1.210481      0.156597      0.071035
  H       1.401187     -2.523063      0.432407
  H      -0.227092     -2.649515     -0.208933
  H       1.075482     -1.902947     -1.199073
  H       2.687370      1.315682      0.209055
8
Coordinates from ORCA-job orca E -35.312609199555
  C       0.664618     -2.028750     -0.199325
  C       0.405648     -0.736467      0.506966
  C       1.717570      1.225221     -0.380929
  O       1.241163      0.141999      0.095921
  H       1.344336     -2.583136      0.453370
  H      -0.252566     -2.604910     -0.262173
  H       1.131139     -1.900436     -1.177385
  H       2.682807      1.350822      0.143630
8
Coordinates from ORCA-job orca E -35.312718508511
  C       0.671128     -2.029109     -0.198438
  C       0.436118     -0.749591      0.529684
  C       1.687490      1.236106     -0.373343
  O       1.261474      0.133830      0.110429
  H       1.306904     -2.625493      0.461629
  H      -0.267583     -2.567278     -0.291993
  H       1.164975     -1.908275     -1.163679
  H       2.674210      1.374153      0.105786
8
Coordinates from ORCA-job orca E -35.312787978306
  C       0.677087     -2.028505     -0.194952
  C       0.453892     -0.755873      0.539684
  C       1.672702      1.242560     -0.372691
  O       1.271928      0.131340      0.117890
  H       1.286622     -2.654555      0.461917
  H      -0.275103     -2.541432     -0.305629
  H       1.181389     -1.917704     -1.156138
  H       2.666198      1.388511      0.089994
8
Coordinates from ORCA-job orca E -35.312808120415
  C       0.679704     -2.029121     -0.192610
  C       0.461399     -0.758457      0.545612
  C       1.666791      1.245600     -0.373632
  O       1.275460      0.131640      0.121960
  H       1.276779     -2.669616      0.461115
  H      -0.277764     -2.530486     -0.312917
  H       1.189142     -1.920341     -1.151536
  H       2.663205      1.395125      0.082082
8
Coordinates from ORCA-job orca E -35.312827059449
  C       0.683409     -2.030746     -0.189611
  C       0.474193     -0.763718      0.558400
  C       1.656194      1.249053     -0.374838
  O       1.281338      0.131587      0.129924
  H       1.258749     -2.693328      0.460725
  H      -0.281845     -2.512830     -0.327501
  H       1.204076     -1.921237     -1.142616
  H       2.658601      1.405561      0.065592
8
Coordinates from ORCA-job orca E -35.312840522850
  C       0.685844     -2.031762     -0.187980
  C       0.481519     -0.767544      0.568051
  C       1.649238      1.249936     -0.375470
  O       1.283114      0.131982      0.136072
  H       1.247432     -2.707154      0.460768
  H      -0.283613     -2.501791     -0.338128
  H       1.214753     -1.918853     -1.136045
  H       2.656428      1.409529      0.052806
8
Coordinates from ORCA-job orca E -35.312862377911
  C       0.696012     -2.034549     -0.182854
  C       0.514374     -0.784709      0.606072
  C       1.620137      1.249762     -0.377775
  O       1.293245      0.130526      0.160467
  H       1.199470     -2.758072      0.460217
  H      -0.289693     -2.452234     -0.378696
  H       1.257893     -1.913150     -1.110543
  H       2.643277      1.426769      0.003188
8
Coordinates from ORCA-job orca E -35.312877482282
  C       0.696453     -2.033653     -0.183041
  C       0.511918     -0.784584      0.605898
  C       1.621984      1.246853     -0.379307
  O       1.288768      0.131575      0.160797
  H       1.203444     -2.754690      0.460281
  H      -0.288736     -2.453423     -0.377705
  H       1.256632     -1.909611     -1.111285
  H       2.644252      1.421876      0.004437
8
Coordinates from ORCA-job orca E -35.312894938961
  C       0.698990     -2.029073     -0.183728
  C       0.503246     -0.784244      0.607428
  C       1.628248      1.234748     -0.385622
  O       1.268707      0.137225      0.163636
  H       1.217575     -2.741917      0.459736
  H      -0.283777     -2.456812     -0.374867
  H       1.253513     -1.895706     -1.113914
  H       2.648213      1.400122      0.007407
8
Coordinates from ORCA-job orca E -35.312901818384
  C       0.700244     -2.030196     -0.183272
  C       0.512811     -0.787815      0.613423
  C       1.620577      1.237970     -0.383756
  O       1.276915      0.135157      0.167983
  H       1.203680     -2.753870      0.460012
  H      -0.286125     -2.445941     -0.382582
  H       1.262628     -1.901180     -1.109333
  H       2.643986      1.410218     -0.002400
8
Coordinates from ORCA-job orca E -35.312902848199
  C       0.701000     -2.030269     -0.182990
  C       0.516835     -0.789456      0.616164
  C       1.617648      1.238607     -0.383880
  O       1.279968      0.134473      0.170326
  H       1.197897     -2.758883      0.459770
  H      -0.286883     -2.440980     -0.385678
  H       1.266354     -1.903515     -1.107534
  H       2.641895      1.414365     -0.006103
