11
Coordinates from ORCA-job orca E -52.423676753934
  C          -1.78599795859347      0.60682173257183     -0.35780833923521
  C          -0.82012147740733     -0.40693699891444      0.60293937154293
  C           1.39184087167473     -0.19785646484288     -0.28032600497017
  O           0.11974711275154     -0.90236689123992     -0.18702070861656
  O           1.51600779216500      0.85617219252898      0.20281878240278
  H          -2.13055100236737      0.00485878519134     -1.19012438823551
  H          -2.56676955228659      0.87766318649178      0.34686894283080
  H          -1.12589086535596      1.42356419267142     -0.62929044465176
  H          -1.54441212820931     -1.18219894456458      0.85695697011216
  H          -0.46024436208163      0.25479845020003      1.39007332208053
  H           2.07583756971040     -0.82042624009358     -0.85772350326000
11
Coordinates from ORCA-job orca E -52.464636976388
  C           0.59371229772016     -2.22048757210418      0.23138789588078
  C          -0.17290881993609     -1.02515641985176     -0.10811249626534
  C           0.12190513056162      1.30671637502921     -0.14278755555534
  O           0.59531170597112      0.14490637076095     -0.24730839973067
  O          -1.07026782667501      1.59460783550057      0.16997061549614
  H           1.18737136319057     -2.07571819212915      1.13295364047398
  H          -0.09014818879525     -3.05097972721518      0.38231670036786
  H           1.27648632758541     -2.48185581108193     -0.58298687264809
  H          -1.08551916777400     -1.01003817097305     -0.69200916953610
  H          -1.63981934393520      0.84488299456483      0.41297456234305
  H           0.79788117328668      2.13454374839971     -0.33407901022627
