11
 energy: -17.077890279901 gnorm: 0.050113019878 xtb: 6.7.1 (edcfbbe)
C            0.60404369510122       -2.24499246115336        0.19086195930075
C           -0.09427290023750       -1.01780371336345       -0.15649631269190
C            0.11439530260001        1.31560463385241       -0.13070300345469
O            0.59499702559090        0.12089461770989       -0.15363280588217
O           -1.11215278026861        1.64450957364059        0.08177459954859
H            1.23267832083999       -2.09877830756712        1.07328954884243
H           -0.09313324060679       -3.06293779624281        0.34748087261291
H            1.30010382186251       -2.53784940401203       -0.60554965732802
H           -1.12944217463164       -1.01428407824673       -0.48025451698635
H           -1.72188690185073        0.93164719980831        0.35334506070393
H            0.81864468814506        2.12540886325863       -0.29778743803990
