7
Coordinates from ORCA-job orca E -14.044864759658
  C          -0.57846312288062     -6.63157403639474     -0.55669158429507
  C           0.30343214579387     -6.57363785373976      0.48799222558667
  H          -0.22290468768885     -6.76304888638130     -1.57349739030891
  H          -0.21043919492167     -7.70399840949619      0.08822311892875
  H          -1.64600993762284     -6.53727663869666     -0.38606043273226
  H           1.37119058574494     -6.65725400292348      0.31309506564158
  H          -0.05104798842483     -6.43125532236782      1.50375014717925
