8
Coordinates from ORCA-job orca E -34.998894979491
  C           0.69253252350697     -2.14510202543644     -0.20047668689077
  C           0.94631271864544     -0.91216813574888      0.50901407100428
  C           1.53696681214605      1.40483491412288     -0.26361885991572
  O           1.41522744727467      0.15157393166579      0.16532543038565
  H           1.05661921934332     -2.98518854989624      0.38980761929014
  H          -0.39638232435654     -2.24197005365638     -0.26944566109551
  H           1.13524583431913     -2.11842786319577     -1.19693965379398
  H           2.54819307912097      1.71079066214505      0.04640855101591
