8
 energy: -11.835426618549 gnorm: 0.124500893476 xtb: 6.7.1 (edcfbbe)
C            0.67571591256792       -2.15879773772325       -0.18274028380780
C            1.11765781872586       -0.94492926284312        0.42402630424284
C            1.60752662289347        1.32581683096321       -0.14974098488276
O            1.38813369136910        0.18256972780844        0.15037964570044
H            1.14732381480192       -3.03139804127948        0.27025599823187
H           -0.41086873458803       -2.27146391953677       -0.07901208618292
H            0.89000187267353       -2.11357463811519       -1.26177705112468
H            2.51918408712317        1.87607170775046        0.00866453386028
