7
Coordinates from ORCA-job orca E -14.345329128178
  C          -0.54272489723088     -6.94461080766614     -0.45718574961359
  C           0.38916404401321     -6.47754071726630      0.59167537260162
  H          -0.25315974763704     -6.57714949046065     -1.44528135078870
  H          -0.55123549948540     -8.03666914065318     -0.53191812135953
  H          -1.56400519974863     -6.62088402279880     -0.26717845481165
  H           1.45009738245876     -6.66799684774031      0.50699573850966
  H           0.03762171762998     -5.97319412341461      1.47970371546220
