7
Coordinates from ORCA-job orca E -14.344046834890
  C      -0.550245     -6.927092     -0.440160
  C       0.370288     -6.487746      0.580404
  H      -0.225221     -6.584092     -1.429927
  H      -0.515115     -8.022181     -0.525913
  H      -1.575621     -6.617668     -0.254570
  H       1.424400     -6.684772      0.481661
  H       0.037270     -5.974495      1.465315
7
Coordinates from ORCA-job orca E -14.345123753069
  C      -0.550076     -6.935300     -0.449755
  C       0.381854     -6.480902      0.590364
  H      -0.242237     -6.584434     -1.440372
  H      -0.534232     -8.029298     -0.535177
  H      -1.574207     -6.622531     -0.265805
  H       1.441380     -6.676492      0.498029
  H       0.043274     -5.969088      1.479527
7
Coordinates from ORCA-job orca E -14.345301802816
  C      -0.546517     -6.941445     -0.455067
  C       0.387533     -6.477957      0.593195
  H      -0.250937     -6.580841     -1.444229
  H      -0.545613     -8.033723     -0.535783
  H      -1.569405     -6.623280     -0.268969
  H       1.447933     -6.671271      0.505847
  H       0.042765     -5.969529      1.481818
7
Coordinates from ORCA-job orca E -14.345324506170
  C      -0.544070     -6.943832     -0.456721
  C       0.388896     -6.477475      0.592648
  H      -0.253023     -6.578190     -1.445093
  H      -0.549648     -8.035852     -0.533773
  H      -1.566014     -6.622172     -0.268257
  H       1.449631     -6.669233      0.507262
  H       0.039986     -5.971292      1.480745
7
Coordinates from ORCA-job orca E -14.345329128178
  C      -0.542725     -6.944611     -0.457186
  C       0.389164     -6.477541      0.591675
  H      -0.253160     -6.577149     -1.445281
  H      -0.551235     -8.036669     -0.531918
  H      -1.564005     -6.620884     -0.267178
  H       1.450097     -6.667997      0.506996
  H       0.037622     -5.973194      1.479704
