7
Coordinates from ORCA-job orca E -29.471419187684
  C           1.15663173627917     -3.30424799781894     -0.05462958643321
  C           0.57534904256069     -1.94088892243187      0.06089807751325
  O           1.17892515184898     -0.93560592729572     -0.18077442248654
  H           2.18978166173126     -3.26803387656784     -0.38145333702750
  H           1.04867283202176     -3.76500042337344      0.92985776230734
  H           0.51854018257922     -3.84642309322122     -0.75624956687880
  H          -0.47647563702107     -1.79208198929096      0.38665744300547
