7
Coordinates from ORCA-job orca E -29.468759960620
  C       1.125322     -3.280197     -0.057213
  C       0.600829     -1.910839      0.052338
  O       1.224061     -0.883184     -0.050799
  H       2.146445     -3.285195     -0.448177
  H       1.121498     -3.739298      0.938638
  H       0.468370     -3.892809     -0.680587
  H      -0.495100     -1.860760      0.250106
7
Coordinates from ORCA-job orca E -29.470356591801
  C       1.136791     -3.288817     -0.063494
  C       0.591895     -1.920718      0.043251
  O       1.213220     -0.902403     -0.053743
  H       2.155002     -3.287606     -0.442263
  H       1.113089     -3.726181      0.940009
  H       0.475416     -3.886729     -0.690404
  H      -0.493988     -1.839828      0.270951
7
Coordinates from ORCA-job orca E -29.470816243579
  C       1.156839     -3.305082     -0.064765
  C       0.585887     -1.938373      0.080144
  O       1.195055     -0.930151     -0.077470
  H       2.169733     -3.283225     -0.442285
  H       1.112547     -3.727434      0.942728
  H       0.473195     -3.863904     -0.700686
  H      -0.501832     -1.804113      0.266640
7
Coordinates from ORCA-job orca E -29.471229587788
  C       1.156649     -3.309440     -0.068954
  C       0.575476     -1.941279      0.045561
  O       1.197216     -0.931181     -0.079265
  H       2.177860     -3.280545     -0.431054
  H       1.094825     -3.717410      0.944430
  H       0.485771     -3.875670     -0.714824
  H      -0.496371     -1.796757      0.308414
7
Coordinates from ORCA-job orca E -29.471322671695
  C       1.152839     -3.306611     -0.066001
  C       0.578518     -1.938542      0.053080
  O       1.199947     -0.926613     -0.086657
  H       2.174101     -3.276953     -0.429449
  H       1.095939     -3.726754      0.942775
  H       0.486281     -3.875688     -0.714351
  H      -0.496200     -1.801120      0.304911
7
Coordinates from ORCA-job orca E -29.471349551560
  C       1.152954     -3.306915     -0.064686
  C       0.577675     -1.939830      0.056149
  O       1.198794     -0.928899     -0.098445
  H       2.175468     -3.273201     -0.424113
  H       1.091034     -3.731976      0.941520
  H       0.490154     -3.873264     -0.719627
  H      -0.494654     -1.798198      0.313508
7
Coordinates from ORCA-job orca E -29.471385929538
  C       1.153389     -3.306773     -0.061383
  C       0.575271     -1.942043      0.059553
  O       1.194792     -0.933842     -0.127176
  H       2.179493     -3.266316     -0.409817
  H       1.077581     -3.744471      0.937857
  H       0.500713     -3.866852     -0.732853
  H      -0.489814     -1.791985      0.338126
7
Coordinates from ORCA-job orca E -29.471401740021
  C       1.154193     -3.305937     -0.058490
  C       0.573595     -1.943035      0.061028
  O       1.189499     -0.937325     -0.152573
  H       2.183618     -3.263206     -0.396522
  H       1.064797     -3.754851      0.934036
  H       0.510249     -3.859683     -0.744359
  H      -0.484525     -1.788245      0.361186
7
Coordinates from ORCA-job orca E -29.471410791907
  C       1.155061     -3.305044     -0.056819
  C       0.573421     -1.942601      0.061048
  O       1.185217     -0.937861     -0.166559
  H       2.186453     -3.264071     -0.388965
  H       1.057123     -3.760118      0.931798
  H       0.515185     -3.854459     -0.750547
  H      -0.481035     -1.788128      0.374350
7
Coordinates from ORCA-job orca E -29.471417573822
  C       1.156257     -3.304179     -0.055123
  C       0.574483     -1.941294      0.060776
  O       1.180349     -0.936552     -0.178162
  H       2.189187     -3.267068     -0.382732
  H       1.050368     -3.764284      0.930045
  H       0.518382     -3.848447     -0.755315
  H      -0.477601     -1.790458      0.384817
7
Coordinates from ORCA-job orca E -29.471419187684
  C       1.156632     -3.304248     -0.054630
  C       0.575349     -1.940889      0.060898
  O       1.178925     -0.935606     -0.180774
  H       2.189782     -3.268034     -0.381453
  H       1.048673     -3.765000      0.929858
  H       0.518540     -3.846423     -0.756250
  H      -0.476476     -1.792082      0.386657
