7
 energy: -9.798211551413 gnorm: 0.075685467471 xtb: 6.7.1 (edcfbbe)
C            1.11376527652220       -3.28391404939761       -0.04237267824524
C            0.67767334185246       -1.87947883377450        0.02541242105031
O            1.14235044085636       -0.82878147494753       -0.17432356131642
H            2.16273313557907       -3.29889232826186       -0.37132471060156
H            1.01782962677185       -3.77284033704504        0.93312731642538
H            0.49178336877516       -3.85456447784065       -0.74054661359636
H           -0.41480891565164       -1.93384313915503        0.37434548757329
