7
Coordinates from ORCA-job orca E -29.850646813607
  C           1.12871107323342     -3.28996585247953     -0.05086157706538
  C           0.58022986433925     -1.90757510066586      0.05590595096036
  O           1.21609977989127     -0.90962480165983     -0.14886098156015
  H           2.15980442847597     -3.26231381535766     -0.39215336436374
  H           1.07164075743120     -3.77317611208214      0.92498990994565
  H           0.51789470059974     -3.87752743724461     -0.73585615446554
  H          -0.48295563397085     -1.83209911051036      0.35114258654879
