7
Coordinates from ORCA-job orca E -29.849742316411
  C       1.125322     -3.280197     -0.057213
  C       0.600829     -1.910839      0.052338
  O       1.224061     -0.883184     -0.050799
  H       2.146445     -3.285195     -0.448177
  H       1.121498     -3.739298      0.938638
  H       0.468370     -3.892809     -0.680587
  H      -0.495100     -1.860760      0.250106
7
Coordinates from ORCA-job orca E -29.850282077672
  C       1.127344     -3.284459     -0.060006
  C       0.586142     -1.907250      0.037023
  O       1.224892     -0.894561     -0.059474
  H       2.147524     -3.285344     -0.435476
  H       1.112225     -3.736025      0.933411
  H       0.486254     -3.897112     -0.691614
  H      -0.492956     -1.847531      0.280443
7
Coordinates from ORCA-job orca E -29.850054805567
  C       1.132778     -3.290399     -0.053765
  C       0.577441     -1.902408      0.077427
  O       1.223560     -0.911369     -0.092640
  H       2.145789     -3.278273     -0.428331
  H       1.118064     -3.757090      0.926158
  H       0.495726     -3.884949     -0.699166
  H      -0.501931     -1.827795      0.274623
7
Coordinates from ORCA-job orca E -29.850559354310
  C       1.129470     -3.288531     -0.056389
  C       0.580094     -1.905300      0.054002
  O       1.226174     -0.903926     -0.085471
  H       2.150116     -3.277009     -0.426921
  H       1.108667     -3.749812      0.931709
  H       0.494809     -3.892101     -0.703367
  H      -0.497904     -1.835603      0.290743
7
Coordinates from ORCA-job orca E -29.850581807443
  C       1.128885     -3.288898     -0.055585
  C       0.579832     -1.906080      0.053550
  O       1.226167     -0.905502     -0.094543
  H       2.151280     -3.273004     -0.421992
  H       1.103040     -3.752809      0.931345
  H       0.498188     -3.890720     -0.708586
  H      -0.495969     -1.835268      0.300117
7
Coordinates from ORCA-job orca E -29.850599681618
  C       1.125998     -3.291738     -0.048818
  C       0.578674     -1.910523      0.055869
  O       1.218055     -0.917252     -0.170472
  H       2.160514     -3.247613     -0.380525
  H       1.059247     -3.780391      0.924196
  H       0.526713     -3.875309     -0.748461
  H      -0.477776     -1.829456      0.372517
7
Coordinates from ORCA-job orca E -29.850636537594
  C       1.127715     -3.290543     -0.050808
  C       0.579524     -1.908385      0.055526
  O       1.218699     -0.911727     -0.148332
  H       2.158754     -3.258385     -0.392623
  H       1.072099     -3.772775      0.925814
  H       0.518066     -3.879007     -0.736311
  H      -0.483432     -1.831461      0.351040
7
Coordinates from ORCA-job orca E -29.850646813607
  C       1.128711     -3.289966     -0.050862
  C       0.580230     -1.907575      0.055906
  O       1.216100     -0.909625     -0.148861
  H       2.159804     -3.262314     -0.392153
  H       1.071641     -3.773176      0.924990
  H       0.517895     -3.877527     -0.735856
  H      -0.482956     -1.832099      0.351143
