11
Coordinates from ORCA-job orca E -52.434993303507
  C          -0.76974094366069     -1.01306775143812     -0.00245348791956
  C           0.75791769389927     -1.02240249621637      0.02289327387929
  C           0.00649525173565      1.11762924698972      0.03213749713030
  O           1.11083056840933      0.37638291466016     -0.00974766768081
  O          -1.10635965865903      0.38873327485585      0.05828086879446
  H          -0.01548620763079      1.85985920681833     -0.81362751831229
  H          -1.23575281012951     -1.49130675514611      0.85519935386102
  H          -1.20600068267750     -1.40374801566436     -0.91906378581383
  H           1.21754466836655     -1.48796163017505     -0.84516765559091
  H           1.19027120036441     -1.43695784991229      0.93081487170615
  H           0.03704002158229      1.83917197842824      0.89582883314617
