3
Coordinates from ORCA-job orca E -16.800186231694
  O      -3.620081      1.227242      0.193268
  H      -4.103876      1.270364      1.027203
  H      -4.263807      1.265554     -0.526469
3
Coordinates from ORCA-job orca E -16.802432834232
  O      -3.613709      1.226777      0.192177
  H      -4.103620      1.270716      1.062749
  H      -4.270434      1.265666     -0.560925
3
Coordinates from ORCA-job orca E -16.802447872939
  O      -3.615507      1.226906      0.192336
  H      -4.102430      1.270661      1.065597
  H      -4.269828      1.265592     -0.563932
3
Coordinates from ORCA-job orca E -16.802453726042
  O      -3.617845      1.227075      0.192564
  H      -4.101016      1.270585      1.067900
  H      -4.268902      1.265499     -0.566463
3
Coordinates from ORCA-job orca E -16.802453936993
  O      -3.618218      1.227102      0.192607
  H      -4.100818      1.270571      1.067976
  H      -4.268728      1.265486     -0.566582
