3
 energy: -5.070483760619 gnorm: 0.004513642827 xtb: 6.7.1 (edcfbbe)
O           -3.61964049139677        1.22722480045289        0.19277756965952
H           -4.10511774297084        1.27039091594794        1.01902508917857
H           -4.26298367903548        1.26560738257543       -0.51776622160458
