4
Coordinates from ORCA-job orca E -22.517482355645
  C      -0.878724      3.129721      0.019180
  O      -2.023298      2.801524      0.035262
  H      -0.308928      3.450995      0.920939
  H      -0.343765      3.439430     -0.904765
4
Coordinates from ORCA-job orca E -22.521178391126
  C      -0.887382      3.184040      0.019083
  O      -2.002235      2.790220      0.036232
  H      -0.315765      3.429165      0.946581
  H      -0.349332      3.418245     -0.931279
4
Coordinates from ORCA-job orca E -22.522001917440
  C      -0.883888      3.210931      0.018500
  O      -1.986326      2.787820      0.036776
  H      -0.325757      3.416776      0.962520
  H      -0.358743      3.406143     -0.947179
4
Coordinates from ORCA-job orca E -22.522213843317
  C      -0.876417      3.218633      0.017933
  O      -1.978822      2.789040      0.037163
  H      -0.333405      3.412241      0.972377
  H      -0.366070      3.401756     -0.956856
4
Coordinates from ORCA-job orca E -22.522293595963
  C      -0.868772      3.218663      0.017454
  O      -1.974966      2.791377      0.037503
  H      -0.339306      3.410993      0.978686
  H      -0.371671      3.400637     -0.963027
4
Coordinates from ORCA-job orca E -22.522306989682
  C      -0.865965      3.215734      0.017305
  O      -1.974767      2.792705      0.037635
  H      -0.340879      3.411766      0.979730
  H      -0.373104      3.401465     -0.964053
4
Coordinates from ORCA-job orca E -22.522308241073
  C      -0.865486      3.214116      0.017275
  O      -1.975125      2.793135      0.037684
  H      -0.340974      3.412347      0.979439
  H      -0.373130      3.402072     -0.963781
