4
 energy: -7.175492579384 gnorm: 0.011748670131 xtb: 6.7.1 (edcfbbe)
C           -0.88974004466924        3.20587673205099        0.01766619569757
O           -2.00367283723717        2.78177556550921        0.03820370576981
H           -0.31538946323406        3.42190995739999        0.93439223589310
H           -0.34584465425873        3.41212674053388       -0.91965523710320
