  11
        -17.00953706
 C         -0.6673588518       -3.7759065574       -0.5540622752
 C          0.0833492697       -3.4928745094        0.6091691019
 C          0.1299036325        2.5787235873       -0.0380158326
 O          1.2681552363        2.4949022393       -0.3906237680
 O         -0.7927574613        1.9618601667        0.4187105142
 H         -0.0863120011       -3.7277885824       -1.4811195230
 H         -0.9633281524       -4.8441274360       -0.4840464611
 H         -1.6130110619       -3.2282571510       -0.6134215827
 H          1.1529661121       -3.6651362751        0.6512780843
 H         -0.3853877809       -3.1074573687        1.5063129689
 H         -0.2399086305        3.7162342023       -0.2284926986
