3
Coordinates from ORCA-job orca E -21.951150639640
  C       2.222037      4.166663     -0.219070
  O       1.472353      3.365602      0.135925
  H       2.861007      4.966067     -0.492993
3
Coordinates from ORCA-job orca E -21.959505227423
  C       2.199361      4.149018     -0.206716
  O       1.488354      3.379109      0.127466
  H       2.867681      4.970204     -0.496889
3
Coordinates from ORCA-job orca E -21.959598143037
  C       2.196377      4.152776     -0.203597
  O       1.489198      3.376485      0.126201
  H       2.869822      4.969071     -0.498742
3
Coordinates from ORCA-job orca E -21.959589096307
  C       2.169765      4.180947     -0.189176
  O       1.502327      3.361992      0.119018
  H       2.883305      4.955393     -0.505982
3
Coordinates from ORCA-job orca E -21.954405883452
  C       2.253250      4.148892     -0.086239
  O       1.470213      3.389862      0.062413
  H       2.831934      4.959578     -0.552312
3
Coordinates from ORCA-job orca E -21.959299424288
  C       2.212669      4.151207     -0.172902
  O       1.484780      3.374737      0.110353
  H       2.857947      4.972387     -0.513590
3
Coordinates from ORCA-job orca E -21.959201556869
  C       2.157580      4.194009     -0.181705
  O       1.512480      3.353394      0.114276
  H       2.885337      4.950929     -0.508709
3
Coordinates from ORCA-job orca E -21.959651401323
  C       2.175404      4.170410     -0.204667
  O       1.503369      3.364547      0.125813
  H       2.876623      4.963375     -0.497284
3
Coordinates from ORCA-job orca E -21.959599963439
  C       2.199951      4.160224     -0.179385
  O       1.490719      3.368966      0.113372
  H       2.864726      4.969142     -0.510125
3
Coordinates from ORCA-job orca E -21.951580776256
  C       2.220923      4.128840     -0.179069
  O       1.502509      3.410436      0.103357
  H       2.831965      4.959055     -0.500426
3
Coordinates from ORCA-job orca E -21.959245123240
  C       2.215978      4.144400     -0.185422
  O       1.484951      3.379929      0.115188
  H       2.854467      4.974002     -0.505905
3
Coordinates from ORCA-job orca E -21.959699946403
  C       2.186679      4.161183     -0.201518
  O       1.497172      3.368675      0.124051
  H       2.871545      4.968474     -0.498672
3
Coordinates from ORCA-job orca E -21.959098598924
  C       2.182327      4.174791     -0.163160
  O       1.491761      3.352673      0.108421
  H       2.881309      4.970868     -0.521400
3
Coordinates from ORCA-job orca E -21.951756524480
  C       2.225837      4.179046     -0.198857
  O       1.486423      3.368761      0.118268
  H       2.843137      4.950524     -0.495549
3
Coordinates from ORCA-job orca E -21.951662958518
  C       2.204582      4.164432     -0.200409
  O       1.523483      3.406440      0.107205
  H       2.827331      4.927461     -0.482935
3
Coordinates from ORCA-job orca E -21.957067179814
  C       2.200501      4.153322     -0.189903
  O       1.506995      3.390067      0.110380
  H       2.847900      4.954943     -0.496616
3
Coordinates from ORCA-job orca E -21.959567114832
  C       2.196270      4.165853     -0.175232
  O       1.496147      3.368687      0.108875
  H       2.862979      4.963792     -0.509782
3
Coordinates from ORCA-job orca E -21.959716285788
  C       2.188537      4.166931     -0.184191
  O       1.497348      3.364892      0.114618
  H       2.869512      4.966509     -0.506566
3
Coordinates from ORCA-job orca E -21.959739966547
  C       2.185896      4.166655     -0.190404
  O       1.498209      3.364452      0.117948
  H       2.871292      4.967225     -0.503683
3
Coordinates from ORCA-job orca E -21.959741440382
  C       2.185444      4.166637     -0.192240
  O       1.498605      3.364657      0.118790
  H       2.871348      4.967038     -0.502688
