3
 energy: -6.594625322177 gnorm: 0.026586480426 xtb: 6.7.1 (edcfbbe)
C            2.38004292241057        3.96819949118048       -0.38409422082624
O            1.45167656808142        3.51886964666595        0.18878765345287
H            2.72374040930624        5.01122739244651       -0.38087673897687
