10
Coordinates from ORCA-job orca E -52.158489842360
  C          -0.08088454205522     -2.08289282391112     -0.28542922200005
  C           0.72634413398230     -1.05553206796280      0.45618835818558
  C          -0.20177978690311      1.00333263989062     -0.20759833270149
  O           0.80962705391554      0.18548326684606     -0.29778232156200
  O          -1.20589873204045      0.92090146975709      0.41467226398082
  H           0.34447472625247     -2.27171354521044     -1.26899901534413
  H          -0.07821719022731     -3.01636229115307      0.27546440132526
  H          -1.11328258287667     -1.76036140575565     -0.40153200875547
  H           1.76207483606233     -1.35888777539105      0.57654865771360
  H           0.30080326389012     -0.82609617710962      1.43076302915788
