10
Coordinates from ORCA-job orca E -51.915783600452
  C          -0.41083159810825     -1.15715747873973     -0.36146629703618
  C           0.80116947903477     -0.92481283886109      0.53472703393028
  C           0.03399358111591      1.01419964780441     -0.22783435068340
  O           0.94389853135718      0.53690798951823      0.49955711638683
  O          -0.77549498603764      0.20979807158127     -0.75938642750912
  H          -0.19937593009383     -1.69956772447568     -1.27649482284505
  H          -1.27509281608528     -1.57322395915008      0.14443395159610
  H           1.73004551635617     -1.33646413202999      0.15548113777242
  H           0.65367663127809     -1.19689121868633      1.57418030443044
  H          -0.04992640881711      2.08428801303900     -0.39122753604233
