10
Coordinates from ORCA-job orca E -51.820749918653
  C      -0.164967     -1.829239     -0.458759
  C       0.542242     -0.912094      0.396920
  C       0.048838      1.332627     -0.121616
  O       0.899748      0.329318     -0.198365
  O      -1.030003      1.314129      0.385320
  H      -0.442026     -1.559584     -1.466370
  H      -0.360406     -2.828843     -0.106030
  H       1.494672     -1.369214      0.737290
  H      -0.027266     -0.741269      1.338082
  H       0.491230      2.221246     -0.614504
10
Coordinates from ORCA-job orca E -51.826140576615
  C      -0.142530     -1.783042     -0.448050
  C       0.574457     -0.894033      0.389531
  C       0.049524      1.305373     -0.131969
  O       0.950296      0.317539     -0.201939
  O      -1.045051      1.176538      0.313477
  H      -0.449516     -1.495526     -1.452897
  H      -0.432348     -2.758750     -0.061316
  H       1.496954     -1.395693      0.737491
  H      -0.003256     -0.735053      1.323387
  H       0.453531      2.219723     -0.575746
10
Coordinates from ORCA-job orca E -51.828034793725
  C      -0.178748     -1.715308     -0.408474
  C       0.600404     -0.868065      0.382373
  C       0.040582      1.277236     -0.177911
  O       1.004427      0.309045     -0.205305
  O      -1.053105      1.034818      0.212324
  H      -0.462029     -1.446979     -1.430612
  H      -0.446012     -2.706721     -0.030801
  H       1.483441     -1.441939      0.722661
  H       0.031553     -0.722359      1.322413
  H       0.431548      2.237348     -0.494697
10
Coordinates from ORCA-job orca E -51.829897118315
  C      -0.191524     -1.666223     -0.383356
  C       0.645792     -0.864755      0.398124
  C       0.033737      1.267492     -0.165309
  O       1.048719      0.332079     -0.136500
  O      -1.090785      0.919072     -0.018391
  H      -0.525681     -1.357204     -1.375457
  H      -0.497310     -2.646810     -0.014569
  H       1.517974     -1.486125      0.684912
  H       0.109933     -0.784727      1.367812
  H       0.401207      2.244278     -0.465295
10
Coordinates from ORCA-job orca E -51.832361244847
  C      -0.191350     -1.649969     -0.377689
  C       0.681222     -0.867484      0.409721
  C       0.018491      1.244741     -0.213285
  O       1.070054      0.357033     -0.081732
  O      -1.103564      0.855580     -0.180418
  H      -0.571363     -1.307611     -1.336226
  H      -0.560988     -2.594809      0.010588
  H       1.558667     -1.497629      0.660117
  H       0.170818     -0.841547      1.398814
  H       0.380076      2.258772     -0.397919
10
Coordinates from ORCA-job orca E -51.834413152050
  C      -0.234788     -1.573656     -0.349158
  C       0.720202     -0.867392      0.439150
  C       0.008817      1.187510     -0.256273
  O       1.093109      0.387185      0.018390
  O      -1.078382      0.722624     -0.385044
  H      -0.604221     -1.205111     -1.298936
  H      -0.637202     -2.510731      0.021162
  H       1.600651     -1.515526      0.604924
  H       0.267015     -0.900117      1.454982
  H       0.316861      2.232290     -0.357227
10
Coordinates from ORCA-job orca E -51.835883723258
  C      -0.270107     -1.556176     -0.375028
  C       0.720639     -0.880187      0.452539
  C       0.009699      1.145490     -0.270990
  O       1.069280      0.404555      0.050398
  O      -1.116107      0.747091     -0.268062
  H      -0.507800     -1.272517     -1.387085
  H      -0.713033     -2.466867      0.009826
  H       1.629514     -1.479279      0.595285
  H       0.302176     -0.874470      1.479431
  H       0.327799      2.189436     -0.394345
10
Coordinates from ORCA-job orca E -51.845335868749
  C      -0.273852     -1.480738     -0.373152
  C       0.745742     -0.874014      0.459325
  C       0.006887      1.094233     -0.257874
  O       1.098148      0.414170      0.082109
  O      -1.079408      0.590528     -0.299783
  H      -0.439283     -1.239590     -1.410907
  H      -0.829757     -2.315150      0.042467
  H       1.637653     -1.506520      0.561271
  H       0.343245     -0.879687      1.487954
  H       0.242688      2.153844     -0.399439
10
Coordinates from ORCA-job orca E -51.867007696474
  C      -0.300233     -1.350594     -0.385433
  C       0.781498     -0.871230      0.479575
  C       0.013368      0.982774     -0.254788
  O       1.136158      0.426706      0.106106
  O      -1.019383      0.354852     -0.292044
  H      -0.358146     -1.188774     -1.446475
  H      -0.975489     -2.085587      0.037698
  H       1.650919     -1.531619      0.542814
  H       0.401742     -0.841758      1.509602
  H       0.121629      2.062306     -0.405085
10
Coordinates from ORCA-job orca E -51.877933851872
  C      -0.323920     -1.217335     -0.394447
  C       0.812200     -0.872135      0.496867
  C       0.024122      0.883623     -0.247897
  O       1.174944      0.432345      0.099985
  O      -0.938281      0.123584     -0.268346
  H      -0.309740     -1.112182     -1.464194
  H      -1.071582     -1.885204      0.013742
  H       1.646734     -1.567807      0.550630
  H       0.438893     -0.791716      1.522308
  H      -0.001310      1.963903     -0.416677
10
Coordinates from ORCA-job orca E -51.891731860316
  C      -0.333335     -1.265302     -0.382055
  C       0.806179     -0.900610      0.497813
  C       0.017278      0.968186     -0.231477
  O       1.143844      0.435434      0.086274
  O      -0.982436      0.242819     -0.307489
  H      -0.273087     -1.221762     -1.462831
  H      -1.059009     -1.957903      0.028016
  H       1.651833     -1.580385      0.528431
  H       0.451359     -0.808608      1.524995
  H       0.029436      2.045207     -0.389707
10
Coordinates from ORCA-job orca E -51.899715203666
  C      -0.354428     -1.224438     -0.377580
  C       0.808745     -0.910891      0.503385
  C       0.023048      0.967349     -0.219152
  O       1.147105      0.437436      0.074765
  O      -0.959941      0.200293     -0.313543
  H      -0.232069     -1.242735     -1.457268
  H      -1.087007     -1.916170      0.020522
  H       1.645906     -1.598260      0.512232
  H       0.468905     -0.795887      1.531687
  H      -0.008203      2.040380     -0.383077
10
Coordinates from ORCA-job orca E -51.904314581677
  C      -0.372731     -1.188656     -0.366331
  C       0.809878     -0.922338      0.509156
  C       0.026572      0.962488     -0.219783
  O       1.143104      0.438503      0.082775
  O      -0.957917      0.185783     -0.349758
  H      -0.194659     -1.264233     -1.435472
  H      -1.109111     -1.881034      0.021114
  H       1.650183     -1.604741      0.481893
  H       0.489758     -0.804467      1.543476
  H      -0.033016      2.035771     -0.375099
10
Coordinates from ORCA-job orca E -51.907764717988
  C      -0.390862     -1.173319     -0.379461
  C       0.796231     -0.920425      0.502408
  C       0.037337      0.976517     -0.213352
  O       1.142138      0.453072      0.096418
  O      -0.951257      0.199066     -0.337504
  H      -0.138322     -1.372664     -1.417506
  H      -1.137159     -1.849129      0.017978
  H       1.643552     -1.590708      0.435765
  H       0.497288     -0.815365      1.544218
  H      -0.046883      2.050031     -0.356994
10
Coordinates from ORCA-job orca E -51.907580156665
  C      -0.429406     -1.188578     -0.350943
  C       0.782989     -0.925059      0.506039
  C       0.051260      1.022814     -0.228838
  O       1.107759      0.490512      0.195372
  O      -0.896906      0.258396     -0.558909
  H      -0.163530     -1.485380     -1.360402
  H      -1.149777     -1.871212      0.082310
  H       1.658043     -1.537948      0.341792
  H       0.538065     -0.908836      1.566911
  H      -0.046435      2.102369     -0.301363
10
Coordinates from ORCA-job orca E -51.913047343885
  C      -0.396171     -1.164238     -0.362459
  C       0.802038     -0.936393      0.524671
  C       0.033039      0.993431     -0.233038
  O       1.085237      0.488091      0.238898
  O      -0.934271      0.229352     -0.507529
  H      -0.152222     -1.468122     -1.375626
  H      -1.185580     -1.769335      0.063892
  H       1.690688     -1.523504      0.333080
  H       0.558076     -0.960300      1.584481
  H      -0.048773      2.068095     -0.374400
10
Coordinates from ORCA-job orca E -51.913706786878
  C      -0.410359     -1.150990     -0.363063
  C       0.788827     -0.927886      0.535065
  C       0.042721      1.001295     -0.227269
  O       1.083836      0.500390      0.274019
  O      -0.895500      0.201260     -0.505541
  H      -0.146002     -1.486917     -1.362186
  H      -1.203031     -1.756375      0.058793
  H       1.679280     -1.494606      0.288963
  H       0.569448     -0.996562      1.598271
  H      -0.057159      2.067467     -0.405081
10
Coordinates from ORCA-job orca E -51.914810749853
  C      -0.408219     -1.170731     -0.366648
  C       0.790412     -0.926167      0.533961
  C       0.040766      1.013643     -0.228676
  O       1.046780      0.515522      0.340404
  O      -0.877941      0.228287     -0.582459
  H      -0.166038     -1.566636     -1.347920
  H      -1.220887     -1.724469      0.087833
  H       1.697461     -1.448624      0.253594
  H       0.591650     -1.047919      1.594818
  H      -0.041923      2.084171     -0.392937
10
Coordinates from ORCA-job orca E -51.915095470063
  C      -0.401846     -1.156583     -0.362747
  C       0.795203     -0.930357      0.541479
  C       0.031659      1.007121     -0.226270
  O       1.042048      0.508138      0.342537
  O      -0.868940      0.223065     -0.629763
  H      -0.161214     -1.579569     -1.333307
  H      -1.229631     -1.685202      0.095045
  H       1.698895     -1.446871      0.238423
  H       0.604105     -1.061432      1.602107
  H      -0.058218      2.078767     -0.375533
10
Coordinates from ORCA-job orca E -51.915406221106
  C      -0.405329     -1.159535     -0.364595
  C       0.793837     -0.927537      0.541265
  C       0.034502      1.010806     -0.226054
  O       1.027228      0.516549      0.371447
  O      -0.855634      0.220780     -0.637867
  H      -0.169635     -1.595620     -1.330234
  H      -1.234029     -1.679862      0.101523
  H       1.701605     -1.427717      0.224333
  H       0.609985     -1.082047      1.599392
  H      -0.050469      2.081261     -0.387240
10
Coordinates from ORCA-job orca E -51.915562552146
  C      -0.406955     -1.160799     -0.365432
  C       0.795280     -0.925150      0.539779
  C       0.034904      1.014305     -0.226348
  O       1.008076      0.524047      0.404628
  O      -0.837974      0.219097     -0.662963
  H      -0.177393     -1.622102     -1.320456
  H      -1.241946     -1.660330      0.112805
  H       1.707085     -1.407433      0.206559
  H       0.618396     -1.108838      1.594237
  H      -0.047411      2.084278     -0.390838
10
Coordinates from ORCA-job orca E -51.915673125140
  C      -0.408337     -1.159644     -0.365066
  C       0.797692     -0.923713      0.538215
  C       0.034706      1.014668     -0.226839
  O       0.989321      0.529292      0.433852
  O      -0.820876      0.215811     -0.690258
  H      -0.184234     -1.644161     -1.309521
  H      -1.250136     -1.637407      0.123554
  H       1.713412     -1.388634      0.191217
  H       0.627159     -1.133873      1.588619
  H      -0.046646      2.084738     -0.391805
10
Coordinates from ORCA-job orca E -51.915742106816
  C      -0.409620     -1.158742     -0.363662
  C       0.799959     -0.923464      0.536534
  C       0.034099      1.015308     -0.227518
  O       0.970278      0.532931      0.462082
  O      -0.802733      0.214413     -0.721149
  H      -0.189778     -1.668932     -1.295300
  H      -1.260400     -1.611074      0.133564
  H       1.720521     -1.368274      0.175528
  H       0.637590     -1.160624      1.582494
  H      -0.047854      2.085535     -0.390603
10
Coordinates from ORCA-job orca E -51.915770154436
  C      -0.409926     -1.156833     -0.362434
  C       0.801583     -0.923905      0.535385
  C       0.033623      1.013469     -0.227727
  O       0.958334      0.534767      0.479567
  O      -0.789287      0.209991     -0.740319
  H      -0.193841     -1.682703     -1.286039
  H      -1.268712     -1.589032      0.138872
  H       1.726105     -1.354017      0.166501
  H       0.645117     -1.178381      1.578117
  H      -0.050935      2.083720     -0.389951
10
Coordinates from ORCA-job orca E -51.915770422087
  C      -0.412165     -1.158061     -0.360892
  C       0.801593     -0.924730      0.534439
  C       0.034191      1.014880     -0.228018
  O       0.936601      0.537292      0.507802
  O      -0.770035      0.211934     -0.769845
  H      -0.200997     -1.708336     -1.271189
  H      -1.278125     -1.567485      0.147401
  H       1.731883     -1.328725      0.150509
  H       0.657699     -1.204982      1.572119
  H      -0.048584      2.085290     -0.390356
10
Coordinates from ORCA-job orca E -51.915782454104
  C      -0.410885     -1.156967     -0.361438
  C       0.801252     -0.924658      0.534952
  C       0.033897      1.014201     -0.227891
  O       0.946056      0.536486      0.496522
  O      -0.777853      0.210123     -0.756660
  H      -0.198164     -1.696765     -1.277738
  H      -1.274116     -1.576040      0.143687
  H       1.729386     -1.339136      0.156987
  H       0.652398     -1.194446      1.574837
  H      -0.049909      2.084278     -0.391288
10
Coordinates from ORCA-job orca E -51.915783600452
  C      -0.410832     -1.157157     -0.361466
  C       0.801169     -0.924813      0.534727
  C       0.033994      1.014200     -0.227834
  O       0.943899      0.536908      0.499557
  O      -0.775495      0.209798     -0.759386
  H      -0.199376     -1.699568     -1.276495
  H      -1.275093     -1.573224      0.144434
  H       1.730046     -1.336464      0.155481
  H       0.653677     -1.196891      1.574180
  H      -0.049926      2.084288     -0.391228
