3
Coordinates from ORCA-job orca E -21.950777800174
  C      -4.173892      6.608094      0.249657
  O      -3.502688      5.672276      0.154327
  H      -4.775670      7.475144      0.326969
3
Coordinates from ORCA-job orca E -21.959725492938
  C      -4.155249      6.582631      0.246918
  O      -3.516810      5.691599      0.156408
  H      -4.780191      7.481284      0.327627
3
Coordinates from ORCA-job orca E -21.959731400395
  C      -4.154925      6.583041      0.246685
  O      -3.516453      5.690658      0.156454
  H      -4.780873      7.481815      0.327814
