3
 energy: -6.594631374134 gnorm: 0.026482976987 xtb: 6.7.1 (edcfbbe)
C           -4.44317558237701        6.41686838414435        0.23120577582935
O           -3.41684524997835        5.83858424821033        0.16648165947122
H           -4.59212346637331        7.50012816291476        0.33327456137020
