  11
        -17.00409486
 C         -0.5317453579       -1.7181658980       -0.1431471994
 C          0.7250335544       -1.0109346941       -0.0719032674
 C         -0.0257757159        1.2529623176       -0.1435529466
 O          0.9442063750        0.2690277110       -0.0882034159
 O         -1.1923138853        1.0719183287       -0.0423368200
 H         -0.4553311885       -2.5225985720       -0.8842386758
 H         -0.7071097367       -2.2551372504        0.7997328908
 H         -1.3920031065       -1.0786459380       -0.3425646347
 H          1.6558764458       -1.5747588682       -0.0033345126
 H          2.3580239374        1.5211505470        7.0627394334
 H          0.4827454660        2.2145033182       -0.2870637257
