10
Coordinates from ORCA-job orca E -51.890824305288
  C          -0.01721816145755     -2.27142864056403     -0.34424624141199
  C           0.63843809526125     -1.28856751773771      0.52385591152025
  C          -0.28208722350327      1.12365352937912      0.03777228207725
  O           0.44177235362987      0.21932612576160     -0.21592948849206
  O          -0.94997355682650      2.01058145869744      0.25224407608968
  H           0.41500497647855     -2.29728608524971     -1.34036312335007
  H           0.19775135868417     -3.23372794805161      0.13357817965943
  H          -1.09651575652445     -2.15640241459553     -0.38084000936323
  H           1.72176320344712     -1.27596915040131      0.53286298669448
  H           0.19432589081080     -1.09230806723826      1.49336123657625
