4
Coordinates from ORCA-job orca E  -7.432532261094
  C          -3.54550937549657     -3.57481582941348     -0.23127332732125
  H          -3.87769711942095     -3.81464549534826     -1.22906181162974
  H          -3.21934696215841     -4.36104360739356      0.43107399478971
  H          -3.53562987292407     -2.54896922784469      0.10132454416129
