4
Coordinates from ORCA-job orca E  -7.432484889615
  C      -3.528953     -3.571611     -0.233641
  H      -3.880782     -3.815426     -1.221489
  H      -3.225993     -4.365041      0.427867
  H      -3.542455     -2.547397      0.099327
4
Coordinates from ORCA-job orca E  -7.432516885291
  C      -3.535984     -3.572748     -0.232244
  H      -3.879770     -3.815315     -1.225702
  H      -3.222824     -4.364374      0.429770
  H      -3.539605     -2.547037      0.100239
4
Coordinates from ORCA-job orca E  -7.432530952071
  C      -3.544301     -3.574399     -0.231079
  H      -3.877967     -3.814822     -1.228771
  H      -3.219704     -4.362019      0.430886
  H      -3.536212     -2.548234      0.101028
4
Coordinates from ORCA-job orca E  -7.432532261094
  C      -3.545509     -3.574816     -0.231273
  H      -3.877697     -3.814645     -1.229062
  H      -3.219347     -4.361044      0.431074
  H      -3.535630     -2.548969      0.101325
