  11
        -17.05620215
 C         -0.5502446033       -6.9270917490       -0.4401597469
 C          0.3702884116       -6.4877455134        0.5804040135
 C          0.0064486121        4.4129574493       -0.0155804302
 O          1.1587363150        4.1715376687       -0.3714676053
 O         -1.0883617266        4.4132725349        0.3324519925
 H         -0.2252208246       -6.5840918532       -1.4299266259
 H         -0.5151145765       -8.0221807783       -0.5259129352
 H         -1.5756214068       -6.6176679165       -0.2545697742
 H          1.4244003771       -6.6847721106        0.4816607458
 H          0.0372704151       -5.9744952291        1.4653154773
 H          1.8047408703        4.8808547533       -0.6027664434
