4
Coordinates from ORCA-job orca E -38.265960158381
  C       0.006449      4.412957     -0.015580
  O       1.158736      4.171538     -0.371468
  O      -1.088362      4.413273      0.332452
  H       1.804741      4.880855     -0.602766
4
Coordinates from ORCA-job orca E -38.312906289742
  C       0.010336      4.524709     -0.021588
  O       1.172566      4.162184     -0.375195
  O      -1.105798      4.347100      0.340760
  H       1.804460      4.844629     -0.601340
4
Coordinates from ORCA-job orca E -38.343262385770
  C       0.002430      4.652919     -0.024688
  O       1.151171      4.149941     -0.367582
  O      -1.069943      4.270962      0.332649
  H       1.797906      4.804800     -0.597741
4
Coordinates from ORCA-job orca E -38.351031746830
  C      -0.006788      4.732637     -0.025106
  O       1.121920      4.136011     -0.357495
  O      -1.021306      4.226081      0.319046
  H       1.787738      4.783894     -0.593808
4
Coordinates from ORCA-job orca E -38.351311720685
  C      -0.009695      4.742181     -0.024177
  O       1.118346      4.132141     -0.355937
  O      -1.011083      4.222054      0.315651
  H       1.783996      4.782247     -0.592899
4
Coordinates from ORCA-job orca E -38.351362278585
  C      -0.011033      4.740587     -0.023328
  O       1.119690      4.130238     -0.356068
  O      -1.010411      4.223958      0.315077
  H       1.783318      4.783839     -0.593044
4
Coordinates from ORCA-job orca E -38.351369843068
  C      -0.011368      4.738813     -0.022969
  O       1.121136      4.129286     -0.356379
  O      -1.011081      4.225522      0.315083
  H       1.782877      4.785001     -0.593098
4
Coordinates from ORCA-job orca E -38.351370558393
  C      -0.011298      4.738424     -0.022901
  O       1.121640      4.128882     -0.356478
  O      -1.011401      4.225923      0.315110
  H       1.782623      4.785393     -0.593094
