  11
        -17.04746415
 C         -2.1840322726       -3.2167591318       -0.0923696172
 C         -0.8260583340       -2.6975858678       -0.0365859633
 C          2.2220364976        4.1666626350       -0.2190704145
 O          1.4723531495        3.3656023862        0.1359247134
 O         -0.5033346614       -1.4603821885        0.1693829919
 H         -2.3647465948       -3.6918382774       -1.0622367198
 H         -2.3118386015       -4.0211487228        0.6388611144
 H         -2.9349464634       -2.4461605183        0.0769177765
 H          0.0242733048       -3.3559388112       -0.1725495001
 H         -1.2647845297       -0.8676432294        0.3128586604
 H          2.8610068167        4.9660668384       -0.4929929117
