11
Coordinates from ORCA-job orca E -52.423676753934
  C          -1.78599795859347      0.60682173257183     -0.35780833923521
  C          -0.82012147740733     -0.40693699891444      0.60293937154293
  C           1.39184087167473     -0.19785646484288     -0.28032600497017
  O           0.11974711275154     -0.90236689123992     -0.18702070861656
  O           1.51600779216500      0.85617219252898      0.20281878240278
  H          -2.13055100236737      0.00485878519134     -1.19012438823551
  H          -2.56676955228659      0.87766318649178      0.34686894283080
  H          -1.12589086535596      1.42356419267142     -0.62929044465176
  H          -1.54441212820931     -1.18219894456458      0.85695697011216
  H          -0.46024436208163      0.25479845020003      1.39007332208053
  H           2.07583756971040     -0.82042624009358     -0.85772350326000
11
Coordinates from ORCA-job orca E -52.460314995247
  C          -0.39926099922911     -1.69570136013835     -0.31689166739053
  C           0.71644525841604     -1.04904280170942      0.38474072171623
  C           0.03376748177549      1.21905010656764     -0.10146396172088
  O           0.93778696831445      0.35538442695308     -0.04434668217253
  O          -1.20089322900365      1.04013259521818      0.11071747105683
  H          -0.49624857539936     -1.60318610460045     -1.39185620422703
  H          -0.90360024912938     -2.51464180903417      0.17851016409478
  H          -1.46281984627387      0.10720879317070      0.24640227403808
  H           1.67914907077258     -1.50621326763339      0.15071232561875
  H           0.60174095855330     -1.01402109880779      1.46657570757070
  H           0.33755014470352      2.23138145321397     -0.35794547418440
