11
Coordinates from ORCA-job orca E -52.454782419188
  C      -0.273813     -1.854386     -0.457511
  C       0.624320     -1.034958      0.355551
  C       0.029055      1.230252     -0.148042
  O       0.877133      0.275914     -0.195185
  O      -1.145193      1.239579      0.356808
  H      -0.404087     -1.660809     -1.507589
  H      -0.672461     -2.761536     -0.040132
  H      -1.485574      0.425388      0.775119
  H       1.631639     -1.495115      0.378099
  H       0.303386     -0.961915      1.405827
  H       0.359212      2.167936     -0.597792
11
Coordinates from ORCA-job orca E -52.458122652921
  C      -0.318729     -1.794604     -0.427414
  C       0.643878     -1.030443      0.372684
  C       0.038563      1.212995     -0.146396
  O       0.893439      0.293019     -0.178903
  O      -1.139131      1.154421      0.309774
  H      -0.441670     -1.599631     -1.483573
  H      -0.721083     -2.706980     -0.012746
  H      -1.445864      0.305969      0.669335
  H       1.633778     -1.496595      0.364540
  H       0.354244     -0.935754      1.421842
  H       0.346193      2.167953     -0.563988
11
Coordinates from ORCA-job orca E -52.459316723161
  C      -0.369293     -1.733490     -0.376796
  C       0.675352     -1.035817      0.386849
  C       0.045250      1.203917     -0.138270
  O       0.917380      0.312684     -0.145519
  O      -1.153713      1.078274      0.231089
  H      -0.501320     -1.538049     -1.433329
  H      -0.770381     -2.648173      0.038623
  H      -1.442424      0.189211      0.494005
  H       1.652842     -1.510639      0.311989
  H       0.446937     -0.934997      1.448270
  H       0.342987      2.187430     -0.491757
11
Coordinates from ORCA-job orca E -52.459815946712
  C      -0.396859     -1.707368     -0.337492
  C       0.695598     -1.043479      0.390398
  C       0.046401      1.207080     -0.125814
  O       0.931572      0.327625     -0.113662
  O      -1.170501      1.049654      0.172066
  H      -0.540198     -1.522017     -1.395172
  H      -0.800387     -2.616371      0.089724
  H      -1.453028      0.134662      0.350696
  H       1.666792     -1.517444      0.255058
  H       0.519340     -0.951235      1.461942
  H       0.344886      2.209244     -0.422588
11
Coordinates from ORCA-job orca E -52.460093056406
  C      -0.403950     -1.706270     -0.321880
  C       0.702787     -1.048564      0.387167
  C       0.044068      1.215919     -0.114409
  O       0.935978      0.338414     -0.090086
  O      -1.183162      1.051334      0.146842
  H      -0.541106     -1.548794     -1.385027
  H      -0.826337     -2.594932      0.128691
  H      -1.460304      0.122187      0.279749
  H       1.672793     -1.515794      0.211823
  H       0.555795     -0.968738      1.464095
  H       0.347055      2.225588     -0.381810
11
Coordinates from ORCA-job orca E -52.460223564758
  C      -0.402555     -1.702289     -0.318666
  C       0.706939     -1.048841      0.385523
  C       0.040822      1.218084     -0.107614
  O       0.939262      0.345704     -0.071810
  O      -1.191117      1.046243      0.133115
  H      -0.527273     -1.569257     -1.386444
  H      -0.856683     -2.563696      0.152473
  H      -1.457632      0.111500      0.256857
  H       1.674863     -1.512789      0.185216
  H       0.573991     -0.984225      1.465119
  H       0.343001      2.229917     -0.368616
11
Coordinates from ORCA-job orca E -52.460292755577
  C      -0.400196     -1.697506     -0.318778
  C       0.710567     -1.047806      0.384498
  C       0.036827      1.218666     -0.103749
  O       0.940330      0.352274     -0.055639
  O      -1.196945      1.040796      0.122828
  H      -0.506749     -1.591863     -1.391398
  H      -0.887290     -2.530441      0.169941
  H      -1.454452      0.104143      0.250547
  H       1.675324     -1.509074      0.163737
  H       0.587931     -1.000055      1.465522
  H       0.338269      2.231216     -0.362353
11
Coordinates from ORCA-job orca E -52.460309905715
  C      -0.399752     -1.694987     -0.317740
  C       0.713681     -1.047606      0.384710
  C       0.035174      1.218554     -0.101719
  O       0.939928      0.354911     -0.048223
  O      -1.199259      1.038105      0.115641
  H      -0.500340     -1.598517     -1.391905
  H      -0.899083     -2.517719      0.176341
  H      -1.456249      0.102322      0.246528
  H       1.676513     -1.507462      0.155043
  H       0.596262     -1.008363      1.466271
  H       0.336743      2.231112     -0.359792
11
Coordinates from ORCA-job orca E -52.460314566678
  C      -0.399186     -1.695596     -0.317723
  C       0.715407     -1.048323      0.384661
  C       0.033968      1.219029     -0.101839
  O       0.938221      0.355427     -0.045687
  O      -1.200281      1.039844      0.113041
  H      -0.495965     -1.603443     -1.392716
  H      -0.902852     -2.514943      0.177730
  H      -1.460420      0.106150      0.248127
  H       1.677974     -1.506627      0.152130
  H       0.599585     -1.012484      1.466333
  H       0.337166      2.231316     -0.358904
11
Coordinates from ORCA-job orca E -52.460314995247
  C      -0.399261     -1.695701     -0.316892
  C       0.716445     -1.049043      0.384741
  C       0.033767      1.219050     -0.101464
  O       0.937787      0.355384     -0.044347
  O      -1.200893      1.040133      0.110717
  H      -0.496249     -1.603186     -1.391856
  H      -0.903600     -2.514642      0.178510
  H      -1.462820      0.107209      0.246402
  H       1.679149     -1.506213      0.150712
  H       0.601741     -1.014021      1.466576
  H       0.337550      2.231381     -0.357945
