11
Coordinates from ORCA-job orca E -52.423676753934
  C          -1.78599795859347      0.60682173257183     -0.35780833923521
  C          -0.82012147740733     -0.40693699891444      0.60293937154293
  C           1.39184087167473     -0.19785646484288     -0.28032600497017
  O           0.11974711275154     -0.90236689123992     -0.18702070861656
  O           1.51600779216500      0.85617219252898      0.20281878240278
  H          -2.13055100236737      0.00485878519134     -1.19012438823551
  H          -2.56676955228659      0.87766318649178      0.34686894283080
  H          -1.12589086535596      1.42356419267142     -0.62929044465176
  H          -1.54441212820931     -1.18219894456458      0.85695697011216
  H          -0.46024436208163      0.25479845020003      1.39007332208053
  H           2.07583756971040     -0.82042624009358     -0.85772350326000
11
Coordinates from ORCA-job orca E -52.450733692982
  C           0.20896585756566     -2.11859756261641     -0.58078290890753
  C           0.30966173887372     -1.07115308548889      0.46722959613177
  C           0.01854063948541      1.30214788563320     -0.18226425749311
  O           0.64839659141064      0.27097891909938     -0.24514398529446
  O          -1.04203453784224      1.54169516960318      0.46430572943853
  H           1.13512846628174     -2.21408919739954     -1.14085366463707
  H           0.02978875589988     -3.06077476799360     -0.06161888632773
  H          -0.62342025075494     -1.94268194520623     -1.25667153477122
  H           1.15920141723763     -1.17209530835866      1.13397816791613
  H          -0.60680586463135     -0.86826605997393      1.01242862458938
  H          -1.37766330172615      2.44960383560151      0.36931006395530
