11
 energy: -17.059247549960 gnorm: 0.029385847311 xtb: 6.7.1 (edcfbbe)
C            0.21768517491860       -2.13058187801889       -0.58449432458242
C            0.31961508423283       -1.08485874358925        0.48043198741709
C           -0.01494549934723        1.27981243722496       -0.14262871761796
O            0.61451630660174        0.25505046582780       -0.19829465215825
O           -1.07676435091846        1.65021369071040        0.43432404181987
H            1.12778665824745       -2.18344771372282       -1.17758458664785
H            0.08825480165241       -3.09735589445723       -0.09350932987913
H           -0.63913557588647       -1.97116671595818       -1.23519441589915
H            1.18935898440180       -1.22562064854895        1.12447113973437
H           -0.59609234898477       -0.95170142062793        1.05803377474233
H           -1.37055583369554        2.57642500341123        0.31437453070926
