7
Coordinates from ORCA-job orca E -45.235487744432
  C       1.885641     -0.176011      0.206264
  C       0.496410      1.677434     -0.056175
  O       1.744978      1.059056     -0.108556
  O      -0.499518      1.083521      0.190073
  H       2.885003     -0.583800      0.123318
  H       1.045007     -0.772543      0.551685
  H       0.616210      2.742920     -0.279039
7
Coordinates from ORCA-job orca E -45.240142764980
  C       1.883920     -0.186564      0.208177
  C       0.502780      1.672092     -0.066104
  O       1.741796      1.090753     -0.101445
  O      -0.486644      1.088178      0.230171
  H       2.882980     -0.582805      0.144885
  H       1.037276     -0.781738      0.512059
  H       0.611623      2.730661     -0.300173
7
Coordinates from ORCA-job orca E -45.236410921978
  C       1.878578     -0.196393      0.212145
  C       0.530196      1.688802      0.041253
  O       1.743412      1.137390     -0.054621
  O      -0.474633      1.070744      0.196102
  H       2.870859     -0.587402      0.106772
  H       1.024106     -0.773484      0.505408
  H       0.601213      2.690920     -0.379490
7
Coordinates from ORCA-job orca E -45.241713461460
  C       1.882488     -0.201803      0.211498
  C       0.522300      1.661413     -0.048271
  O       1.745304      1.121142     -0.092234
  O      -0.480242      1.087216      0.244240
  H       2.885807     -0.578627      0.147933
  H       1.017188     -0.775696      0.489618
  H       0.600886      2.716933     -0.325214
7
Coordinates from ORCA-job orca E -45.241841709504
  C       1.883728     -0.202218      0.211285
  C       0.520055      1.665018     -0.048844
  O       1.747829      1.111419     -0.092943
  O      -0.480519      1.088441      0.240760
  H       2.888583     -0.578054      0.146651
  H       1.016410     -0.774022      0.492885
  H       0.597646      2.719992     -0.322225
7
Coordinates from ORCA-job orca E -45.241877028745
  C       1.883123     -0.203770      0.211432
  C       0.522386      1.663292     -0.049571
  O       1.748824      1.111178     -0.094050
  O      -0.477862      1.087226      0.242548
  H       2.889205     -0.575649      0.147789
  H       1.012162     -0.770473      0.491016
  H       0.595894      2.718774     -0.321594
7
Coordinates from ORCA-job orca E -45.241893402206
  C       1.882748     -0.206220      0.211496
  C       0.524993      1.661874     -0.049132
  O       1.749815      1.109704     -0.095111
  O      -0.475944      1.086631      0.244427
  H       2.890828     -0.572223      0.149007
  H       1.007286     -0.766776      0.488644
  H       0.594005      2.717587     -0.321762
7
Coordinates from ORCA-job orca E -45.241893794713
  C       1.882811     -0.206430      0.211400
  C       0.524902      1.661989     -0.048921
  O       1.749552      1.109309     -0.095354
  O      -0.476229      1.086903      0.244475
  H       2.891156     -0.571863      0.149200
  H       1.007285     -0.766959      0.488567
  H       0.594255      2.717626     -0.321797
