8
Coordinates from ORCA-job orca E -30.389751177816
  C       0.847899     -3.717825     -0.413917
  C       1.584507     -2.522862      0.233229
  O       1.119672     -1.341028     -0.020414
  H       0.895647     -3.626785     -1.499548
  H       1.305122     -4.655241     -0.100786
  H      -0.202666     -3.699273     -0.117587
  H       2.666004     -2.596069     -0.065867
  H       1.610611     -2.707437      1.339483
8
Coordinates from ORCA-job orca E -30.392872313792
  C       0.848191     -3.716438     -0.414230
  C       1.585284     -2.541037      0.231995
  O       1.122043     -1.327972     -0.023574
  H       0.891551     -3.628427     -1.498761
  H       1.301480     -4.657913     -0.109867
  H      -0.198467     -3.704769     -0.113911
  H       2.656589     -2.592494     -0.045000
  H       1.620124     -2.697470      1.327942
8
Coordinates from ORCA-job orca E -30.394257253551
  C       0.848560     -3.712570     -0.414364
  C       1.591014     -2.566338      0.232959
  O       1.123514     -1.325399     -0.034438
  H       0.882054     -3.624607     -1.498822
  H       1.297559     -4.661920     -0.127114
  H      -0.194883     -3.711773     -0.104764
  H       2.659687     -2.584841     -0.025930
  H       1.619291     -2.679072      1.327068
8
Coordinates from ORCA-job orca E -30.394361170454
  C       0.848482     -3.712763     -0.414485
  C       1.594721     -2.572648      0.235186
  O       1.125086     -1.326982     -0.038920
  H       0.877966     -3.622061     -1.498831
  H       1.295242     -4.666348     -0.135374
  H      -0.193948     -3.714806     -0.101195
  H       2.664936     -2.580560     -0.024029
  H       1.614311     -2.670353      1.332241
8
Coordinates from ORCA-job orca E -30.394378304093
  C       0.848916     -3.713384     -0.414037
  C       1.596796     -2.574579      0.236917
  O       1.125601     -1.328802     -0.040593
  H       0.877668     -3.620018     -1.498170
  H       1.293572     -4.669289     -0.138813
  H      -0.193248     -3.715104     -0.099697
  H       2.666419     -2.578577     -0.025746
  H       1.611071     -2.666767      1.334734
