11
Coordinates from ORCA-job orca E -52.423676753934
  C          -1.78599795859347      0.60682173257183     -0.35780833923521
  C          -0.82012147740733     -0.40693699891444      0.60293937154293
  C           1.39184087167473     -0.19785646484288     -0.28032600497017
  O           0.11974711275154     -0.90236689123992     -0.18702070861656
  O           1.51600779216500      0.85617219252898      0.20281878240278
  H          -2.13055100236737      0.00485878519134     -1.19012438823551
  H          -2.56676955228659      0.87766318649178      0.34686894283080
  H          -1.12589086535596      1.42356419267142     -0.62929044465176
  H          -1.54441212820931     -1.18219894456458      0.85695697011216
  H          -0.46024436208163      0.25479845020003      1.39007332208053
  H           2.07583756971040     -0.82042624009358     -0.85772350326000
11
Coordinates from ORCA-job orca E -52.467805093917
  C           0.65569222924300     -2.31759900491180     -0.13690309413271
  C           0.01086341579630     -1.08670190506769      0.00515380246283
  C           0.06606655647374      1.33264740288921      0.10158573874012
  O           0.71189600084417     -0.03260843915246      0.02016533185578
  O          -1.20989690987463      1.25060372905638      0.50261651787147
  H           1.73305356065638     -2.35556352947620     -0.22963867457293
  H           0.07379371051748     -3.22801334799750     -0.15456534455370
  H           0.13714961875006      1.68159957913765     -0.92524275569352
  H          -1.06795444772813     -0.99759503207387      0.10528253201013
  H          -1.32036313912831      1.44419460987286      1.43845624742855
  H           0.73944230504994      1.86454359482344      0.76728345748397
