11
 energy: -17.061838123834 gnorm: 0.052564777734 xtb: 6.7.1 (edcfbbe)
C            0.65671260431428       -2.31531090075486       -0.15992050792796
C            0.01739411195369       -1.11546119496277        0.00211130373628
C            0.08754986847653        1.25176682707286        0.13718017011236
O            0.70331286138639       -0.00424233099885       -0.02199279891221
O           -1.20474274321420        1.16121311942548        0.54677364565573
H            1.72665899213065       -2.35768583584848       -0.30160563886180
H            0.10132450838911       -3.23879694779399       -0.13534600807789
H            0.15258243098451        1.72657246282687       -0.87084021336188
H           -1.05832309229615       -1.04975472429239        0.16013118373085
H           -1.41032646704875        1.66296358445440        1.34532720171618
H            0.75759224193019        1.83424343211438        0.79237783837137
