4
Coordinates from ORCA-job orca E -22.926512273271
  C          -0.87940741803991      3.20983644696406      0.01741605214383
  O          -1.99771257426413      2.78436533119420      0.03818350307312
  H          -0.32345704484949      3.41865764512925      0.94559753037913
  H          -0.35413734284646      3.40881083671248     -0.93058021559608
