4
Coordinates from ORCA-job orca E -22.922290008710
  C      -0.878724      3.129721      0.019180
  O      -2.023298      2.801524      0.035262
  H      -0.308928      3.450995      0.920939
  H      -0.343765      3.439430     -0.904765
4
Coordinates from ORCA-job orca E -22.926239703193
  C      -0.888825      3.197517      0.018563
  O      -2.007967      2.783391      0.036978
  H      -0.312848      3.425613      0.934543
  H      -0.345075      3.415150     -0.919467
4
Coordinates from ORCA-job orca E -22.926452417644
  C      -0.885555      3.208351      0.017964
  O      -2.001908      2.782510      0.037702
  H      -0.318022      3.420435      0.939114
  H      -0.349230      3.410374     -0.924163
4
Coordinates from ORCA-job orca E -22.926505989604
  C      -0.881271      3.210868      0.017504
  O      -1.998507      2.783499      0.038132
  H      -0.322111      3.418583      0.943993
  H      -0.352826      3.408720     -0.929012
4
Coordinates from ORCA-job orca E -22.926512273271
  C      -0.879407      3.209836      0.017416
  O      -1.997713      2.784365      0.038184
  H      -0.323457      3.418658      0.945598
  H      -0.354137      3.408811     -0.930580
