8
 energy: -10.401831922864 gnorm: 0.021358532912 xtb: 6.7.1 (edcfbbe)
C           -2.18634151258031       -3.20273474357341       -0.09042368803754
C           -0.85038561533209       -2.67767034215814       -0.03324270044287
O           -0.51283014934685       -1.49387297817076        0.17385140408351
H           -2.33713251166379       -3.71294353681771       -1.05101769472661
H           -2.28682534420419       -4.02799339699226        0.62661923129310
H           -2.96955255755260       -2.46282752252937        0.07141031711642
H           -0.00458031864078       -3.35805594466346       -0.18063087143284
H           -1.21793463055696       -0.82129382855886        0.31779387970032
