7
Coordinates from ORCA-job orca E -14.345420451934
  C          -0.68464095804349     -3.82488447060463     -0.55940129773455
  C           0.10994618408522     -3.45309176933986      0.63080621426184
  H          -0.11004318065365     -3.71506221244183     -1.47898744620920
  H          -1.00935175654323     -4.87137733766864     -0.51770233752015
  H          -1.58752765335367     -3.22122333453880     -0.64818256777667
  H           1.17376012565110     -3.64067200923828      0.66974814713894
  H          -0.37122522114228     -3.11523675616795      1.53782959783979
