11
Coordinates from ORCA-job orca E -52.423676753934
  C          -1.78599795859347      0.60682173257183     -0.35780833923521
  C          -0.82012147740733     -0.40693699891444      0.60293937154293
  C           1.39184087167473     -0.19785646484288     -0.28032600497017
  O           0.11974711275154     -0.90236689123992     -0.18702070861656
  O           1.51600779216500      0.85617219252898      0.20281878240278
  H          -2.13055100236737      0.00485878519134     -1.19012438823551
  H          -2.56676955228659      0.87766318649178      0.34686894283080
  H          -1.12589086535596      1.42356419267142     -0.62929044465176
  H          -1.54441212820931     -1.18219894456458      0.85695697011216
  H          -0.46024436208163      0.25479845020003      1.39007332208053
  H           2.07583756971040     -0.82042624009358     -0.85772350326000
  11
        -17.04571051
 C          1.1253221287       -3.2801968681       -0.0572130370
 C          0.6008291099       -1.9108391027        0.0523381599
 C         -0.8787237887        3.1297214250        0.0191802781
 O          1.2240614963       -0.8831841691       -0.0507990257
 O         -2.0232975512        2.8015238935        0.0352623453
 H          2.1464448087       -3.2851948237       -0.4481768976
 H          1.1214979706       -3.7392981550        0.9386379108
 H          0.4683698218       -3.8928090523       -0.6805868011
 H         -0.3089281839        3.4509945278        0.9209391131
 H         -0.4951003703       -1.8607600623        0.2501060704
 H         -0.3437648568        3.4394304127       -0.9047648733
