11
Coordinates from ORCA-job orca E -52.465626300782
  C          -0.38262610145074     -1.38391640971294     -0.40842819253411
  C           0.04702243630369     -1.73440604403313      0.93775839195057
  C           0.15540509831776      0.99637229941216     -0.57035301373125
  O           1.39466233361110      0.69924516872782     -0.62713090861583
  O          -0.71701455560919      0.12328894853683     -0.48124051260759
  H           1.98372777714350      1.46514163230291     -0.69652747200603
  H           0.35627794285763     -1.55717528885574     -1.18282139382856
  H          -1.34930463225118     -1.79192595831688     -0.68910837686801
  H           1.03131867946909     -2.14744488494688      1.09729997540108
  H          -0.64707198609745     -1.65754083655767      1.76206272976849
  H          -0.17706484929421      2.03371109134352     -0.60146469282878
