  11
        -17.01857772
 C         -0.0289289970       -2.0539899010       -0.5400953825
 C          0.3243810689       -1.0536787079        0.4518490098
 C         -0.1102750842        1.4230224635       -0.1756799555
 O          0.8165268313        0.1953301588       -0.1943581157
 O         -1.0664196217        1.3742170243        0.4862224636
 H          1.1953503769       -0.0242478239       -1.0737011375
 H          0.2089594800       -3.0852151277       -0.3737403148
 H         -0.5776530306       -1.7936331637       -1.4292313371
 H          1.1164867721       -1.3810071203        1.1319198045
 H         -0.5409398770       -0.7289913106        1.0588701352
 H          0.3578442243        2.1735432264       -0.8020086359
