11
 energy: -0.296516478698 gnorm: 0.000110493688 xtb: 6.7.1 (edcfbbe)
C           -0.29258165746077       -1.82205188646505       -0.44982408219979
C            0.47901157526524       -1.06557297734663        0.55115820613292
C           -0.11958054119726        1.08454253093175       -0.51673612190141
O            0.90352063228534        0.30676477823123        0.06580207240628
O           -1.29046578937421        0.73903526434104       -0.53144969487190
H            1.87921118612405        0.44047343070861       -0.28644160441632
H           -0.05834644095124       -2.83855694028017       -0.71055093451671
H           -1.14564278426462       -1.36166828255532       -0.92013615553484
H            1.37876029521577       -1.60952198663609        0.88084554552770
H           -0.13922006742265       -0.87198405214100        1.44491641972904
H            0.10066573478025        2.04388983911184       -0.98753711625478
